Geom Title=Geometry1
Program Version=6.50
Viewing Rectangle= 4999999.555 , 5000010.445 , 2000000.94735393 , 1999978.98932102 

Storage Area=Perimeter 1     ,,
Storage Area Surface Line= 5 
5000000.063488171999980.06335042                
5000000.066951371999999.93261504                
5000009.930124071999999.93066787                
5000009.927500721999980.07982073                
5000000.063488171999980.06335042                
Storage Area Type= 1 
Storage Area Area=
Storage Area Min Elev=
Storage Area Is2D=-1
Storage Area Point Generation Data=,,0.1,0.1
Storage Area 2D Points= 19404 
5000000.113488171999999.882615045000000.213488171999999.88261504
5000000.313488171999999.882615045000000.413488181999999.88261504
5000000.513488181999999.882615045000000.613488181999999.88261504
5000000.713488181999999.882615045000000.813488181999999.88261504
5000000.913488181999999.882615045000001.013488181999999.88261504
5000001.113488191999999.882615045000001.213488191999999.88261504
5000001.313488191999999.882615045000001.413488191999999.88261504
5000001.513488191999999.882615045000001.613488191999999.88261504
 5000001.71348821999999.88261504 5000001.81348821999999.88261504
 5000001.91348821999999.88261504 5000002.01348821999999.88261504
 5000002.11348821999999.88261504 5000002.21348821999999.88261504
 5000002.31348821999999.882615045000002.413488211999999.88261504
5000002.513488211999999.882615045000002.613488211999999.88261504
5000002.713488211999999.882615045000002.813488211999999.88261504
5000002.913488211999999.882615045000003.013488211999999.88261504
5000003.113488221999999.882615045000003.213488221999999.88261504
5000003.313488221999999.882615045000003.413488221999999.88261504
5000003.513488221999999.882615045000003.613488221999999.88261504
5000003.713488221999999.882615045000003.813488231999999.88261504
5000003.913488231999999.882615045000004.013488231999999.88261504
5000004.113488231999999.882615045000004.213488231999999.88261504
5000004.313488231999999.882615045000004.413488241999999.88261504
5000004.513488241999999.882615045000004.613488241999999.88261504
5000004.713488241999999.882615045000004.813488241999999.88261504
5000004.913488241999999.882615045000005.013488241999999.88261504
5000005.113488251999999.882615045000005.213488251999999.88261504
5000005.313488251999999.882615045000005.413488251999999.88261504
5000005.513488251999999.882615045000005.613488251999999.88261504
5000005.713488251999999.882615045000005.813488261999999.88261504
5000005.913488261999999.882615045000006.013488261999999.88261504
5000006.113488261999999.882615045000006.213488261999999.88261504
5000006.313488261999999.882615045000006.413488271999999.88261504
5000006.513488271999999.882615045000006.613488271999999.88261504
5000006.713488271999999.882615045000006.813488271999999.88261504
5000006.913488271999999.882615045000007.013488271999999.88261504
5000007.113488281999999.882615045000007.213488281999999.88261504
5000007.313488281999999.882615045000007.413488281999999.88261504
5000007.513488281999999.882615045000007.613488281999999.88261504
5000007.713488281999999.882615045000007.813488291999999.88261504
5000007.913488291999999.882615045000008.013488291999999.88261504
5000008.113488291999999.882615045000008.213488291999999.88261504
5000008.313488291999999.882615045000008.413488291999999.88261504
 5000008.51348831999999.88261504 5000008.61348831999999.88261504
 5000008.71348831999999.88261504 5000008.81348831999999.88261504
 5000008.91348831999999.88261504 5000009.01348831999999.88261504
5000009.113488311999999.882615045000009.213488311999999.88261504
5000009.313488311999999.882615045000009.413488311999999.88261504
5000009.513488311999999.882615045000009.613488311999999.88261504
5000009.713488311999999.882615045000009.813488321999999.88261504
5000000.113488171999999.782615045000000.213488171999999.78261504
5000000.313488171999999.782615045000000.413488181999999.78261504
5000000.513488181999999.782615045000000.613488181999999.78261504
5000000.713488181999999.782615045000000.813488181999999.78261504
5000000.913488181999999.782615045000001.013488181999999.78261504
5000001.113488191999999.782615045000001.213488191999999.78261504
5000001.313488191999999.782615045000001.413488191999999.78261504
5000001.513488191999999.782615045000001.613488191999999.78261504
 5000001.71348821999999.78261504 5000001.81348821999999.78261504
 5000001.91348821999999.78261504 5000002.01348821999999.78261504
 5000002.11348821999999.78261504 5000002.21348821999999.78261504
 5000002.31348821999999.782615045000002.413488211999999.78261504
5000002.513488211999999.782615045000002.613488211999999.78261504
5000002.713488211999999.782615045000002.813488211999999.78261504
5000002.913488211999999.782615045000003.013488211999999.78261504
5000003.113488221999999.782615045000003.213488221999999.78261504
5000003.313488221999999.782615045000003.413488221999999.78261504
5000003.513488221999999.782615045000003.613488221999999.78261504
5000003.713488221999999.782615045000003.813488231999999.78261504
5000003.913488231999999.782615045000004.013488231999999.78261504
5000004.113488231999999.782615045000004.213488231999999.78261504
5000004.313488231999999.782615045000004.413488241999999.78261504
5000004.513488241999999.782615045000004.613488241999999.78261504
5000004.713488241999999.782615045000004.813488241999999.78261504
5000004.913488241999999.782615045000005.013488241999999.78261504
5000005.113488251999999.782615045000005.213488251999999.78261504
5000005.313488251999999.782615045000005.413488251999999.78261504
5000005.513488251999999.782615045000005.613488251999999.78261504
5000005.713488251999999.782615045000005.813488261999999.78261504
5000005.913488261999999.782615045000006.013488261999999.78261504
5000006.113488261999999.782615045000006.213488261999999.78261504
5000006.313488261999999.782615045000006.413488271999999.78261504
5000006.513488271999999.782615045000006.613488271999999.78261504
5000006.713488271999999.782615045000006.813488271999999.78261504
5000006.913488271999999.782615045000007.013488271999999.78261504
5000007.113488281999999.782615045000007.213488281999999.78261504
5000007.313488281999999.782615045000007.413488281999999.78261504
5000007.513488281999999.782615045000007.613488281999999.78261504
5000007.713488281999999.782615045000007.813488291999999.78261504
5000007.913488291999999.782615045000008.013488291999999.78261504
5000008.113488291999999.782615045000008.213488291999999.78261504
5000008.313488291999999.782615045000008.413488291999999.78261504
 5000008.51348831999999.78261504 5000008.61348831999999.78261504
 5000008.71348831999999.78261504 5000008.81348831999999.78261504
 5000008.91348831999999.78261504 5000009.01348831999999.78261504
5000009.113488311999999.782615045000009.213488311999999.78261504
5000009.313488311999999.782615045000009.413488311999999.78261504
5000009.513488311999999.782615045000009.613488311999999.78261504
5000009.713488311999999.782615045000009.813488321999999.78261504
5000000.113488171999999.682615045000000.213488171999999.68261504
5000000.313488171999999.682615045000000.413488181999999.68261504
5000000.513488181999999.682615045000000.613488181999999.68261504
5000000.713488181999999.682615045000000.813488181999999.68261504
5000000.913488181999999.682615045000001.013488181999999.68261504
5000001.113488191999999.682615045000001.213488191999999.68261504
5000001.313488191999999.682615045000001.413488191999999.68261504
5000001.513488191999999.682615045000001.613488191999999.68261504
 5000001.71348821999999.68261504 5000001.81348821999999.68261504
 5000001.91348821999999.68261504 5000002.01348821999999.68261504
 5000002.11348821999999.68261504 5000002.21348821999999.68261504
 5000002.31348821999999.682615045000002.413488211999999.68261504
5000002.513488211999999.682615045000002.613488211999999.68261504
5000002.713488211999999.682615045000002.813488211999999.68261504
5000002.913488211999999.682615045000003.013488211999999.68261504
5000003.113488221999999.682615045000003.213488221999999.68261504
5000003.313488221999999.682615045000003.413488221999999.68261504
5000003.513488221999999.682615045000003.613488221999999.68261504
5000003.713488221999999.682615045000003.813488231999999.68261504
5000003.913488231999999.682615045000004.013488231999999.68261504
5000004.113488231999999.682615045000004.213488231999999.68261504
5000004.313488231999999.682615045000004.413488241999999.68261504
5000004.513488241999999.682615045000004.613488241999999.68261504
5000004.713488241999999.682615045000004.813488241999999.68261504
5000004.913488241999999.682615045000005.013488241999999.68261504
5000005.113488251999999.682615045000005.213488251999999.68261504
5000005.313488251999999.682615045000005.413488251999999.68261504
5000005.513488251999999.682615045000005.613488251999999.68261504
5000005.713488251999999.682615045000005.813488261999999.68261504
5000005.913488261999999.682615045000006.013488261999999.68261504
5000006.113488261999999.682615045000006.213488261999999.68261504
5000006.313488261999999.682615045000006.413488271999999.68261504
5000006.513488271999999.682615045000006.613488271999999.68261504
5000006.713488271999999.682615045000006.813488271999999.68261504
5000006.913488271999999.682615045000007.013488271999999.68261504
5000007.113488281999999.682615045000007.213488281999999.68261504
5000007.313488281999999.682615045000007.413488281999999.68261504
5000007.513488281999999.682615045000007.613488281999999.68261504
5000007.713488281999999.682615045000007.813488291999999.68261504
5000007.913488291999999.682615045000008.013488291999999.68261504
5000008.113488291999999.682615045000008.213488291999999.68261504
5000008.313488291999999.682615045000008.413488291999999.68261504
 5000008.51348831999999.68261504 5000008.61348831999999.68261504
 5000008.71348831999999.68261504 5000008.81348831999999.68261504
 5000008.91348831999999.68261504 5000009.01348831999999.68261504
5000009.113488311999999.682615045000009.213488311999999.68261504
5000009.313488311999999.682615045000009.413488311999999.68261504
5000009.513488311999999.682615045000009.613488311999999.68261504
5000009.713488311999999.682615045000009.813488321999999.68261504
5000000.113488171999999.582615045000000.213488171999999.58261504
5000000.313488171999999.582615045000000.413488181999999.58261504
5000000.513488181999999.582615045000000.613488181999999.58261504
5000000.713488181999999.582615045000000.813488181999999.58261504
5000000.913488181999999.582615045000001.013488181999999.58261504
5000001.113488191999999.582615045000001.213488191999999.58261504
5000001.313488191999999.582615045000001.413488191999999.58261504
5000001.513488191999999.582615045000001.613488191999999.58261504
 5000001.71348821999999.58261504 5000001.81348821999999.58261504
 5000001.91348821999999.58261504 5000002.01348821999999.58261504
 5000002.11348821999999.58261504 5000002.21348821999999.58261504
 5000002.31348821999999.582615045000002.413488211999999.58261504
5000002.513488211999999.582615045000002.613488211999999.58261504
5000002.713488211999999.582615045000002.813488211999999.58261504
5000002.913488211999999.582615045000003.013488211999999.58261504
5000003.113488221999999.582615045000003.213488221999999.58261504
5000003.313488221999999.582615045000003.413488221999999.58261504
5000003.513488221999999.582615045000003.613488221999999.58261504
5000003.713488221999999.582615045000003.813488231999999.58261504
5000003.913488231999999.582615045000004.013488231999999.58261504
5000004.113488231999999.582615045000004.213488231999999.58261504
5000004.313488231999999.582615045000004.413488241999999.58261504
5000004.513488241999999.582615045000004.613488241999999.58261504
5000004.713488241999999.582615045000004.813488241999999.58261504
5000004.913488241999999.582615045000005.013488241999999.58261504
5000005.113488251999999.582615045000005.213488251999999.58261504
5000005.313488251999999.582615045000005.413488251999999.58261504
5000005.513488251999999.582615045000005.613488251999999.58261504
5000005.713488251999999.582615045000005.813488261999999.58261504
5000005.913488261999999.582615045000006.013488261999999.58261504
5000006.113488261999999.582615045000006.213488261999999.58261504
5000006.313488261999999.582615045000006.413488271999999.58261504
5000006.513488271999999.582615045000006.613488271999999.58261504
5000006.713488271999999.582615045000006.813488271999999.58261504
5000006.913488271999999.582615045000007.013488271999999.58261504
5000007.113488281999999.582615045000007.213488281999999.58261504
5000007.313488281999999.582615045000007.413488281999999.58261504
5000007.513488281999999.582615045000007.613488281999999.58261504
5000007.713488281999999.582615045000007.813488291999999.58261504
5000007.913488291999999.582615045000008.013488291999999.58261504
5000008.113488291999999.582615045000008.213488291999999.58261504
5000008.313488291999999.582615045000008.413488291999999.58261504
 5000008.51348831999999.58261504 5000008.61348831999999.58261504
 5000008.71348831999999.58261504 5000008.81348831999999.58261504
 5000008.91348831999999.58261504 5000009.01348831999999.58261504
5000009.113488311999999.582615045000009.213488311999999.58261504
5000009.313488311999999.582615045000009.413488311999999.58261504
5000009.513488311999999.582615045000009.613488311999999.58261504
5000009.713488311999999.582615045000009.813488321999999.58261504
5000000.113488171999999.482615045000000.213488171999999.48261504
5000000.313488171999999.482615045000000.413488181999999.48261504
5000000.513488181999999.482615045000000.613488181999999.48261504
5000000.713488181999999.482615045000000.813488181999999.48261504
5000000.913488181999999.482615045000001.013488181999999.48261504
5000001.113488191999999.482615045000001.213488191999999.48261504
5000001.313488191999999.482615045000001.413488191999999.48261504
5000001.513488191999999.482615045000001.613488191999999.48261504
 5000001.71348821999999.48261504 5000001.81348821999999.48261504
 5000001.91348821999999.48261504 5000002.01348821999999.48261504
 5000002.11348821999999.48261504 5000002.21348821999999.48261504
 5000002.31348821999999.482615045000002.413488211999999.48261504
5000002.513488211999999.482615045000002.613488211999999.48261504
5000002.713488211999999.482615045000002.813488211999999.48261504
5000002.913488211999999.482615045000003.013488211999999.48261504
5000003.113488221999999.482615045000003.213488221999999.48261504
5000003.313488221999999.482615045000003.413488221999999.48261504
5000003.513488221999999.482615045000003.613488221999999.48261504
5000003.713488221999999.482615045000003.813488231999999.48261504
5000003.913488231999999.482615045000004.013488231999999.48261504
5000004.113488231999999.482615045000004.213488231999999.48261504
5000004.313488231999999.482615045000004.413488241999999.48261504
5000004.513488241999999.482615045000004.613488241999999.48261504
5000004.713488241999999.482615045000004.813488241999999.48261504
5000004.913488241999999.482615045000005.013488241999999.48261504
5000005.113488251999999.482615045000005.213488251999999.48261504
5000005.313488251999999.482615045000005.413488251999999.48261504
5000005.513488251999999.482615045000005.613488251999999.48261504
5000005.713488251999999.482615045000005.813488261999999.48261504
5000005.913488261999999.482615045000006.013488261999999.48261504
5000006.113488261999999.482615045000006.213488261999999.48261504
5000006.313488261999999.482615045000006.413488271999999.48261504
5000006.513488271999999.482615045000006.613488271999999.48261504
5000006.713488271999999.482615045000006.813488271999999.48261504
5000006.913488271999999.482615045000007.013488271999999.48261504
5000007.113488281999999.482615045000007.213488281999999.48261504
5000007.313488281999999.482615045000007.413488281999999.48261504
5000007.513488281999999.482615045000007.613488281999999.48261504
5000007.713488281999999.482615045000007.813488291999999.48261504
5000007.913488291999999.482615045000008.013488291999999.48261504
5000008.113488291999999.482615045000008.213488291999999.48261504
5000008.313488291999999.482615045000008.413488291999999.48261504
 5000008.51348831999999.48261504 5000008.61348831999999.48261504
 5000008.71348831999999.48261504 5000008.81348831999999.48261504
 5000008.91348831999999.48261504 5000009.01348831999999.48261504
5000009.113488311999999.482615045000009.213488311999999.48261504
5000009.313488311999999.482615045000009.413488311999999.48261504
5000009.513488311999999.482615045000009.613488311999999.48261504
5000009.713488311999999.482615045000009.813488321999999.48261504
5000000.113488171999999.382615045000000.213488171999999.38261504
5000000.313488171999999.382615045000000.413488181999999.38261504
5000000.513488181999999.382615045000000.613488181999999.38261504
5000000.713488181999999.382615045000000.813488181999999.38261504
5000000.913488181999999.382615045000001.013488181999999.38261504
5000001.113488191999999.382615045000001.213488191999999.38261504
5000001.313488191999999.382615045000001.413488191999999.38261504
5000001.513488191999999.382615045000001.613488191999999.38261504
 5000001.71348821999999.38261504 5000001.81348821999999.38261504
 5000001.91348821999999.38261504 5000002.01348821999999.38261504
 5000002.11348821999999.38261504 5000002.21348821999999.38261504
 5000002.31348821999999.382615045000002.413488211999999.38261504
5000002.513488211999999.382615045000002.613488211999999.38261504
5000002.713488211999999.382615045000002.813488211999999.38261504
5000002.913488211999999.382615045000003.013488211999999.38261504
5000003.113488221999999.382615045000003.213488221999999.38261504
5000003.313488221999999.382615045000003.413488221999999.38261504
5000003.513488221999999.382615045000003.613488221999999.38261504
5000003.713488221999999.382615045000003.813488231999999.38261504
5000003.913488231999999.382615045000004.013488231999999.38261504
5000004.113488231999999.382615045000004.213488231999999.38261504
5000004.313488231999999.382615045000004.413488241999999.38261504
5000004.513488241999999.382615045000004.613488241999999.38261504
5000004.713488241999999.382615045000004.813488241999999.38261504
5000004.913488241999999.382615045000005.013488241999999.38261504
5000005.113488251999999.382615045000005.213488251999999.38261504
5000005.313488251999999.382615045000005.413488251999999.38261504
5000005.513488251999999.382615045000005.613488251999999.38261504
5000005.713488251999999.382615045000005.813488261999999.38261504
5000005.913488261999999.382615045000006.013488261999999.38261504
5000006.113488261999999.382615045000006.213488261999999.38261504
5000006.313488261999999.382615045000006.413488271999999.38261504
5000006.513488271999999.382615045000006.613488271999999.38261504
5000006.713488271999999.382615045000006.813488271999999.38261504
5000006.913488271999999.382615045000007.013488271999999.38261504
5000007.113488281999999.382615045000007.213488281999999.38261504
5000007.313488281999999.382615045000007.413488281999999.38261504
5000007.513488281999999.382615045000007.613488281999999.38261504
5000007.713488281999999.382615045000007.813488291999999.38261504
5000007.913488291999999.382615045000008.013488291999999.38261504
5000008.113488291999999.382615045000008.213488291999999.38261504
5000008.313488291999999.382615045000008.413488291999999.38261504
 5000008.51348831999999.38261504 5000008.61348831999999.38261504
 5000008.71348831999999.38261504 5000008.81348831999999.38261504
 5000008.91348831999999.38261504 5000009.01348831999999.38261504
5000009.113488311999999.382615045000009.213488311999999.38261504
5000009.313488311999999.382615045000009.413488311999999.38261504
5000009.513488311999999.382615045000009.613488311999999.38261504
5000009.713488311999999.382615045000009.813488321999999.38261504
5000000.113488171999999.282615035000000.213488171999999.28261503
5000000.313488171999999.282615035000000.413488181999999.28261503
5000000.513488181999999.282615035000000.613488181999999.28261503
5000000.713488181999999.282615035000000.813488181999999.28261503
5000000.913488181999999.282615035000001.013488181999999.28261503
5000001.113488191999999.282615035000001.213488191999999.28261503
5000001.313488191999999.282615035000001.413488191999999.28261503
5000001.513488191999999.282615035000001.613488191999999.28261503
 5000001.71348821999999.28261503 5000001.81348821999999.28261503
 5000001.91348821999999.28261503 5000002.01348821999999.28261503
 5000002.11348821999999.28261503 5000002.21348821999999.28261503
 5000002.31348821999999.282615035000002.413488211999999.28261503
5000002.513488211999999.282615035000002.613488211999999.28261503
5000002.713488211999999.282615035000002.813488211999999.28261503
5000002.913488211999999.282615035000003.013488211999999.28261503
5000003.113488221999999.282615035000003.213488221999999.28261503
5000003.313488221999999.282615035000003.413488221999999.28261503
5000003.513488221999999.282615035000003.613488221999999.28261503
5000003.713488221999999.282615035000003.813488231999999.28261503
5000003.913488231999999.282615035000004.013488231999999.28261503
5000004.113488231999999.282615035000004.213488231999999.28261503
5000004.313488231999999.282615035000004.413488241999999.28261503
5000004.513488241999999.282615035000004.613488241999999.28261503
5000004.713488241999999.282615035000004.813488241999999.28261503
5000004.913488241999999.282615035000005.013488241999999.28261503
5000005.113488251999999.282615035000005.213488251999999.28261503
5000005.313488251999999.282615035000005.413488251999999.28261503
5000005.513488251999999.282615035000005.613488251999999.28261503
5000005.713488251999999.282615035000005.813488261999999.28261503
5000005.913488261999999.282615035000006.013488261999999.28261503
5000006.113488261999999.282615035000006.213488261999999.28261503
5000006.313488261999999.282615035000006.413488271999999.28261503
5000006.513488271999999.282615035000006.613488271999999.28261503
5000006.713488271999999.282615035000006.813488271999999.28261503
5000006.913488271999999.282615035000007.013488271999999.28261503
5000007.113488281999999.282615035000007.213488281999999.28261503
5000007.313488281999999.282615035000007.413488281999999.28261503
5000007.513488281999999.282615035000007.613488281999999.28261503
5000007.713488281999999.282615035000007.813488291999999.28261503
5000007.913488291999999.282615035000008.013488291999999.28261503
5000008.113488291999999.282615035000008.213488291999999.28261503
5000008.313488291999999.282615035000008.413488291999999.28261503
 5000008.51348831999999.28261503 5000008.61348831999999.28261503
 5000008.71348831999999.28261503 5000008.81348831999999.28261503
 5000008.91348831999999.28261503 5000009.01348831999999.28261503
5000009.113488311999999.282615035000009.213488311999999.28261503
5000009.313488311999999.282615035000009.413488311999999.28261503
5000009.513488311999999.282615035000009.613488311999999.28261503
5000009.713488311999999.282615035000009.813488321999999.28261503
5000000.113488171999999.182615035000000.213488171999999.18261503
5000000.313488171999999.182615035000000.413488181999999.18261503
5000000.513488181999999.182615035000000.613488181999999.18261503
5000000.713488181999999.182615035000000.813488181999999.18261503
5000000.913488181999999.182615035000001.013488181999999.18261503
5000001.113488191999999.182615035000001.213488191999999.18261503
5000001.313488191999999.182615035000001.413488191999999.18261503
5000001.513488191999999.182615035000001.613488191999999.18261503
 5000001.71348821999999.18261503 5000001.81348821999999.18261503
 5000001.91348821999999.18261503 5000002.01348821999999.18261503
 5000002.11348821999999.18261503 5000002.21348821999999.18261503
 5000002.31348821999999.182615035000002.413488211999999.18261503
5000002.513488211999999.182615035000002.613488211999999.18261503
5000002.713488211999999.182615035000002.813488211999999.18261503
5000002.913488211999999.182615035000003.013488211999999.18261503
5000003.113488221999999.182615035000003.213488221999999.18261503
5000003.313488221999999.182615035000003.413488221999999.18261503
5000003.513488221999999.182615035000003.613488221999999.18261503
5000003.713488221999999.182615035000003.813488231999999.18261503
5000003.913488231999999.182615035000004.013488231999999.18261503
5000004.113488231999999.182615035000004.213488231999999.18261503
5000004.313488231999999.182615035000004.413488241999999.18261503
5000004.513488241999999.182615035000004.613488241999999.18261503
5000004.713488241999999.182615035000004.813488241999999.18261503
5000004.913488241999999.182615035000005.013488241999999.18261503
5000005.113488251999999.182615035000005.213488251999999.18261503
5000005.313488251999999.182615035000005.413488251999999.18261503
5000005.513488251999999.182615035000005.613488251999999.18261503
5000005.713488251999999.182615035000005.813488261999999.18261503
5000005.913488261999999.182615035000006.013488261999999.18261503
5000006.113488261999999.182615035000006.213488261999999.18261503
5000006.313488261999999.182615035000006.413488271999999.18261503
5000006.513488271999999.182615035000006.613488271999999.18261503
5000006.713488271999999.182615035000006.813488271999999.18261503
5000006.913488271999999.182615035000007.013488271999999.18261503
5000007.113488281999999.182615035000007.213488281999999.18261503
5000007.313488281999999.182615035000007.413488281999999.18261503
5000007.513488281999999.182615035000007.613488281999999.18261503
5000007.713488281999999.182615035000007.813488291999999.18261503
5000007.913488291999999.182615035000008.013488291999999.18261503
5000008.113488291999999.182615035000008.213488291999999.18261503
5000008.313488291999999.182615035000008.413488291999999.18261503
 5000008.51348831999999.18261503 5000008.61348831999999.18261503
 5000008.71348831999999.18261503 5000008.81348831999999.18261503
 5000008.91348831999999.18261503 5000009.01348831999999.18261503
5000009.113488311999999.182615035000009.213488311999999.18261503
5000009.313488311999999.182615035000009.413488311999999.18261503
5000009.513488311999999.182615035000009.613488311999999.18261503
5000009.713488311999999.182615035000009.813488321999999.18261503
5000000.113488171999999.082615035000000.213488171999999.08261503
5000000.313488171999999.082615035000000.413488181999999.08261503
5000000.513488181999999.082615035000000.613488181999999.08261503
5000000.713488181999999.082615035000000.813488181999999.08261503
5000000.913488181999999.082615035000001.013488181999999.08261503
5000001.113488191999999.082615035000001.213488191999999.08261503
5000001.313488191999999.082615035000001.413488191999999.08261503
5000001.513488191999999.082615035000001.613488191999999.08261503
 5000001.71348821999999.08261503 5000001.81348821999999.08261503
 5000001.91348821999999.08261503 5000002.01348821999999.08261503
 5000002.11348821999999.08261503 5000002.21348821999999.08261503
 5000002.31348821999999.082615035000002.413488211999999.08261503
5000002.513488211999999.082615035000002.613488211999999.08261503
5000002.713488211999999.082615035000002.813488211999999.08261503
5000002.913488211999999.082615035000003.013488211999999.08261503
5000003.113488221999999.082615035000003.213488221999999.08261503
5000003.313488221999999.082615035000003.413488221999999.08261503
5000003.513488221999999.082615035000003.613488221999999.08261503
5000003.713488221999999.082615035000003.813488231999999.08261503
5000003.913488231999999.082615035000004.013488231999999.08261503
5000004.113488231999999.082615035000004.213488231999999.08261503
5000004.313488231999999.082615035000004.413488241999999.08261503
5000004.513488241999999.082615035000004.613488241999999.08261503
5000004.713488241999999.082615035000004.813488241999999.08261503
5000004.913488241999999.082615035000005.013488241999999.08261503
5000005.113488251999999.082615035000005.213488251999999.08261503
5000005.313488251999999.082615035000005.413488251999999.08261503
5000005.513488251999999.082615035000005.613488251999999.08261503
5000005.713488251999999.082615035000005.813488261999999.08261503
5000005.913488261999999.082615035000006.013488261999999.08261503
5000006.113488261999999.082615035000006.213488261999999.08261503
5000006.313488261999999.082615035000006.413488271999999.08261503
5000006.513488271999999.082615035000006.613488271999999.08261503
5000006.713488271999999.082615035000006.813488271999999.08261503
5000006.913488271999999.082615035000007.013488271999999.08261503
5000007.113488281999999.082615035000007.213488281999999.08261503
5000007.313488281999999.082615035000007.413488281999999.08261503
5000007.513488281999999.082615035000007.613488281999999.08261503
5000007.713488281999999.082615035000007.813488291999999.08261503
5000007.913488291999999.082615035000008.013488291999999.08261503
5000008.113488291999999.082615035000008.213488291999999.08261503
5000008.313488291999999.082615035000008.413488291999999.08261503
 5000008.51348831999999.08261503 5000008.61348831999999.08261503
 5000008.71348831999999.08261503 5000008.81348831999999.08261503
 5000008.91348831999999.08261503 5000009.01348831999999.08261503
5000009.113488311999999.082615035000009.213488311999999.08261503
5000009.313488311999999.082615035000009.413488311999999.08261503
5000009.513488311999999.082615035000009.613488311999999.08261503
5000009.713488311999999.082615035000009.813488321999999.08261503
5000000.113488171999998.982615035000000.213488171999998.98261503
5000000.313488171999998.982615035000000.413488181999998.98261503
5000000.513488181999998.982615035000000.613488181999998.98261503
5000000.713488181999998.982615035000000.813488181999998.98261503
5000000.913488181999998.982615035000001.013488181999998.98261503
5000001.113488191999998.982615035000001.213488191999998.98261503
5000001.313488191999998.982615035000001.413488191999998.98261503
5000001.513488191999998.982615035000001.613488191999998.98261503
 5000001.71348821999998.98261503 5000001.81348821999998.98261503
 5000001.91348821999998.98261503 5000002.01348821999998.98261503
 5000002.11348821999998.98261503 5000002.21348821999998.98261503