Geom Title=Geometry1
Program Version=6.50
Viewing Rectangle= 4999999.555 , 5000010.445 , 2000000.94735393 , 1999978.94054804 

Storage Area=Perimeter 1     ,,
Storage Area Surface Line= 5 
5000000.063488171999980.06335042                
5000000.066951371999999.93261504                
5000009.930124071999999.93066787                
5000009.927500721999980.07982073                
5000000.063488171999980.06335042                
Storage Area Type= 1 
Storage Area Area=
Storage Area Min Elev=
Storage Area Is2D=-1
Storage Area Point Generation Data=,,0.5,0.5
Storage Area 2D Points= 741 
5000000.313488171999999.682615045000000.813488171999999.68261504
5000001.313488171999999.682615045000001.813488171999999.68261504
5000002.313488171999999.682615045000002.813488171999999.68261504
5000003.313488171999999.682615045000003.813488171999999.68261504
5000004.313488171999999.682615045000004.813488171999999.68261504
5000005.313488171999999.682615045000005.813488171999999.68261504
5000006.313488171999999.682615045000006.813488171999999.68261504
5000007.313488171999999.682615045000007.813488171999999.68261504
5000008.313488171999999.682615045000008.813488171999999.68261504
5000009.313488171999999.682615045000000.313488171999999.18261504
5000000.813488171999999.182615045000001.313488171999999.18261504
5000001.813488171999999.182615045000002.313488171999999.18261504
5000002.813488171999999.182615045000003.313488171999999.18261504
5000003.813488171999999.182615045000004.313488171999999.18261504
5000004.813488171999999.182615045000005.313488171999999.18261504
5000005.813488171999999.182615045000006.313488171999999.18261504
5000006.813488171999999.182615045000007.313488171999999.18261504
5000007.813488171999999.182615045000008.313488171999999.18261504
5000008.813488171999999.182615045000009.313488171999999.18261504
5000000.313488171999998.682615045000000.813488171999998.68261504
5000001.313488171999998.682615045000001.813488171999998.68261504
5000002.313488171999998.682615045000002.813488171999998.68261504
5000003.313488171999998.682615045000003.813488171999998.68261504
5000004.313488171999998.682615045000004.813488171999998.68261504
5000005.313488171999998.682615045000005.813488171999998.68261504
5000006.313488171999998.682615045000006.813488171999998.68261504
5000007.313488171999998.682615045000007.813488171999998.68261504
5000008.313488171999998.682615045000008.813488171999998.68261504
5000009.313488171999998.682615045000000.313488171999998.18261504
5000000.813488171999998.182615045000001.313488171999998.18261504
5000001.813488171999998.182615045000002.313488171999998.18261504
5000002.813488171999998.182615045000003.313488171999998.18261504
5000003.813488171999998.182615045000004.313488171999998.18261504
5000004.813488171999998.182615045000005.313488171999998.18261504
5000005.813488171999998.182615045000006.313488171999998.18261504
5000006.813488171999998.182615045000007.313488171999998.18261504
5000007.813488171999998.182615045000008.313488171999998.18261504
5000008.813488171999998.182615045000009.313488171999998.18261504
5000000.313488171999997.682615045000000.813488171999997.68261504
5000001.313488171999997.682615045000001.813488171999997.68261504
5000002.313488171999997.682615045000002.813488171999997.68261504
5000003.313488171999997.682615045000003.813488171999997.68261504
5000004.313488171999997.682615045000004.813488171999997.68261504
5000005.313488171999997.682615045000005.813488171999997.68261504
5000006.313488171999997.682615045000006.813488171999997.68261504
5000007.313488171999997.682615045000007.813488171999997.68261504
5000008.313488171999997.682615045000008.813488171999997.68261504
5000009.313488171999997.682615045000000.313488171999997.18261504
5000000.813488171999997.182615045000001.313488171999997.18261504
5000001.813488171999997.182615045000002.313488171999997.18261504
5000002.813488171999997.182615045000003.313488171999997.18261504
5000003.813488171999997.182615045000004.313488171999997.18261504
5000004.813488171999997.182615045000005.313488171999997.18261504
5000005.813488171999997.182615045000006.313488171999997.18261504
5000006.813488171999997.182615045000007.313488171999997.18261504
5000007.813488171999997.182615045000008.313488171999997.18261504
5000008.813488171999997.182615045000009.313488171999997.18261504
5000000.313488171999996.682615045000000.813488171999996.68261504
5000001.313488171999996.682615045000001.813488171999996.68261504
5000002.313488171999996.682615045000002.813488171999996.68261504
5000003.313488171999996.682615045000003.813488171999996.68261504
5000004.313488171999996.682615045000004.813488171999996.68261504
5000005.313488171999996.682615045000005.813488171999996.68261504
5000006.313488171999996.682615045000006.813488171999996.68261504
5000007.313488171999996.682615045000007.813488171999996.68261504
5000008.313488171999996.682615045000008.813488171999996.68261504
5000009.313488171999996.682615045000000.313488171999996.18261504
5000000.813488171999996.182615045000001.313488171999996.18261504
5000001.813488171999996.182615045000002.313488171999996.18261504
5000002.813488171999996.182615045000003.313488171999996.18261504
5000003.813488171999996.182615045000004.313488171999996.18261504
5000004.813488171999996.182615045000005.313488171999996.18261504
5000005.813488171999996.182615045000006.313488171999996.18261504
5000006.813488171999996.182615045000007.313488171999996.18261504
5000007.813488171999996.182615045000008.313488171999996.18261504
5000008.813488171999996.182615045000009.313488171999996.18261504
5000000.313488171999995.682615045000000.813488171999995.68261504
5000001.313488171999995.682615045000001.813488171999995.68261504
5000002.313488171999995.682615045000002.813488171999995.68261504
5000003.313488171999995.682615045000003.813488171999995.68261504
5000004.313488171999995.682615045000004.813488171999995.68261504
5000005.313488171999995.682615045000005.813488171999995.68261504
5000006.313488171999995.682615045000006.813488171999995.68261504
5000007.313488171999995.682615045000007.813488171999995.68261504
5000008.313488171999995.682615045000008.813488171999995.68261504
5000009.313488171999995.682615045000000.313488171999995.18261504
5000000.813488171999995.182615045000001.313488171999995.18261504
5000001.813488171999995.182615045000002.313488171999995.18261504
5000002.813488171999995.182615045000003.313488171999995.18261504
5000003.813488171999995.182615045000004.313488171999995.18261504
5000004.813488171999995.182615045000005.313488171999995.18261504
5000005.813488171999995.182615045000006.313488171999995.18261504
5000006.813488171999995.182615045000007.313488171999995.18261504
5000007.813488171999995.182615045000008.313488171999995.18261504
5000008.813488171999995.182615045000009.313488171999995.18261504
5000000.313488171999994.682615045000000.813488171999994.68261504
5000001.313488171999994.682615045000001.813488171999994.68261504
5000002.313488171999994.682615045000002.813488171999994.68261504
5000003.313488171999994.682615045000003.813488171999994.68261504
5000004.313488171999994.682615045000004.813488171999994.68261504
5000005.313488171999994.682615045000005.813488171999994.68261504
5000006.313488171999994.682615045000006.813488171999994.68261504
5000007.313488171999994.682615045000007.813488171999994.68261504
5000008.313488171999994.682615045000008.813488171999994.68261504
5000009.313488171999994.682615045000000.313488171999994.18261504
5000000.813488171999994.182615045000001.313488171999994.18261504
5000001.813488171999994.182615045000002.313488171999994.18261504
5000002.813488171999994.182615045000003.313488171999994.18261504
5000003.813488171999994.182615045000004.313488171999994.18261504
5000004.813488171999994.182615045000005.313488171999994.18261504
5000005.813488171999994.182615045000006.313488171999994.18261504
5000006.813488171999994.182615045000007.313488171999994.18261504
5000007.813488171999994.182615045000008.313488171999994.18261504
5000008.813488171999994.182615045000009.313488171999994.18261504
5000000.313488171999993.682615045000000.813488171999993.68261504
5000001.313488171999993.682615045000001.813488171999993.68261504
5000002.313488171999993.682615045000002.813488171999993.68261504
5000003.313488171999993.682615045000003.813488171999993.68261504
5000004.313488171999993.682615045000004.813488171999993.68261504
5000005.313488171999993.682615045000005.813488171999993.68261504
5000006.313488171999993.682615045000006.813488171999993.68261504
5000007.313488171999993.682615045000007.813488171999993.68261504
5000008.313488171999993.682615045000008.813488171999993.68261504
5000009.313488171999993.682615045000000.313488171999993.18261504
5000000.813488171999993.182615045000001.313488171999993.18261504
5000001.813488171999993.182615045000002.313488171999993.18261504
5000002.813488171999993.182615045000003.313488171999993.18261504
5000003.813488171999993.182615045000004.313488171999993.18261504
5000004.813488171999993.182615045000005.313488171999993.18261504
5000005.813488171999993.182615045000006.313488171999993.18261504
5000006.813488171999993.182615045000007.313488171999993.18261504
5000007.813488171999993.182615045000008.313488171999993.18261504
5000008.813488171999993.182615045000009.313488171999993.18261504
5000000.313488171999992.682615045000000.813488171999992.68261504
5000001.313488171999992.682615045000001.813488171999992.68261504
5000002.313488171999992.682615045000002.813488171999992.68261504
5000003.313488171999992.682615045000003.813488171999992.68261504
5000004.313488171999992.682615045000004.813488171999992.68261504
5000005.313488171999992.682615045000005.813488171999992.68261504
5000006.313488171999992.682615045000006.813488171999992.68261504
5000007.313488171999992.682615045000007.813488171999992.68261504
5000008.313488171999992.682615045000008.813488171999992.68261504
5000009.313488171999992.682615045000000.313488171999992.18261504
5000000.813488171999992.182615045000001.313488171999992.18261504
5000001.813488171999992.182615045000002.313488171999992.18261504
5000002.813488171999992.182615045000003.313488171999992.18261504
5000003.813488171999992.182615045000004.313488171999992.18261504
5000004.813488171999992.182615045000005.313488171999992.18261504
5000005.813488171999992.182615045000006.313488171999992.18261504
5000006.813488171999992.182615045000007.313488171999992.18261504
5000007.813488171999992.182615045000008.313488171999992.18261504
5000008.813488171999992.182615045000009.313488171999992.18261504
5000000.313488171999991.682615045000000.813488171999991.68261504
5000001.313488171999991.682615045000001.813488171999991.68261504
5000002.313488171999991.682615045000002.813488171999991.68261504
5000003.313488171999991.682615045000003.813488171999991.68261504
5000004.313488171999991.682615045000004.813488171999991.68261504
5000005.313488171999991.682615045000005.813488171999991.68261504
5000006.313488171999991.682615045000006.813488171999991.68261504
5000007.313488171999991.682615045000007.813488171999991.68261504
5000008.313488171999991.682615045000008.813488171999991.68261504
5000009.313488171999991.682615045000000.313488171999991.18261504
5000000.813488171999991.182615045000001.313488171999991.18261504
5000001.813488171999991.182615045000002.313488171999991.18261504
5000002.813488171999991.182615045000003.313488171999991.18261504
5000003.813488171999991.182615045000004.313488171999991.18261504
5000004.813488171999991.182615045000005.313488171999991.18261504
5000005.813488171999991.182615045000006.313488171999991.18261504
5000006.813488171999991.182615045000007.313488171999991.18261504
5000007.813488171999991.182615045000008.313488171999991.18261504
5000008.813488171999991.182615045000009.313488171999991.18261504
5000000.313488171999990.682615045000000.813488171999990.68261504
5000001.313488171999990.682615045000001.813488171999990.68261504
5000002.313488171999990.682615045000002.813488171999990.68261504
5000003.313488171999990.682615045000003.813488171999990.68261504
5000004.313488171999990.682615045000004.813488171999990.68261504
5000005.313488171999990.682615045000005.813488171999990.68261504
5000006.313488171999990.682615045000006.813488171999990.68261504
5000007.313488171999990.682615045000007.813488171999990.68261504
5000008.313488171999990.682615045000008.813488171999990.68261504
5000009.313488171999990.682615045000000.313488171999990.18261504
5000000.813488171999990.182615045000001.313488171999990.18261504
5000001.813488171999990.182615045000002.313488171999990.18261504
5000002.813488171999990.182615045000003.313488171999990.18261504
5000003.813488171999990.182615045000004.313488171999990.18261504
5000004.813488171999990.182615045000005.313488171999990.18261504
5000005.813488171999990.182615045000006.313488171999990.18261504
5000006.813488171999990.182615045000007.313488171999990.18261504
5000007.813488171999990.182615045000008.313488171999990.18261504
5000008.813488171999990.182615045000009.313488171999990.18261504
5000000.313488171999989.682615045000000.813488171999989.68261504
5000001.313488171999989.682615045000001.813488171999989.68261504
5000002.313488171999989.682615045000002.813488171999989.68261504
5000003.313488171999989.682615045000003.813488171999989.68261504
5000004.313488171999989.682615045000004.813488171999989.68261504
5000005.313488171999989.682615045000005.813488171999989.68261504
5000006.313488171999989.682615045000006.813488171999989.68261504
5000007.313488171999989.682615045000007.813488171999989.68261504
5000008.313488171999989.682615045000008.813488171999989.68261504
5000009.313488171999989.682615045000000.313488171999989.18261504
5000000.813488171999989.182615045000001.313488171999989.18261504
5000001.813488171999989.182615045000002.313488171999989.18261504
5000002.813488171999989.182615045000003.313488171999989.18261504
5000003.813488171999989.182615045000004.313488171999989.18261504
5000004.813488171999989.182615045000005.313488171999989.18261504
5000005.813488171999989.182615045000006.313488171999989.18261504
5000006.813488171999989.182615045000007.313488171999989.18261504
5000007.813488171999989.182615045000008.313488171999989.18261504
5000008.813488171999989.182615045000009.313488171999989.18261504
5000000.313488171999988.682615045000000.813488171999988.68261504
5000001.313488171999988.682615045000001.813488171999988.68261504
5000002.313488171999988.682615045000002.813488171999988.68261504
5000003.313488171999988.682615045000003.813488171999988.68261504
5000004.313488171999988.682615045000004.813488171999988.68261504
5000005.313488171999988.682615045000005.813488171999988.68261504
5000006.313488171999988.682615045000006.813488171999988.68261504
5000007.313488171999988.682615045000007.813488171999988.68261504
5000008.313488171999988.682615045000008.813488171999988.68261504
5000009.313488171999988.682615045000000.313488171999988.18261504
5000000.813488171999988.182615045000001.313488171999988.18261504
5000001.813488171999988.182615045000002.313488171999988.18261504
5000002.813488171999988.182615045000003.313488171999988.18261504
5000003.813488171999988.182615045000004.313488171999988.18261504
5000004.813488171999988.182615045000005.313488171999988.18261504
5000005.813488171999988.182615045000006.313488171999988.18261504
5000006.813488171999988.182615045000007.313488171999988.18261504
5000007.813488171999988.182615045000008.313488171999988.18261504
5000008.813488171999988.182615045000009.313488171999988.18261504
5000000.313488171999987.682615045000000.813488171999987.68261504
5000001.313488171999987.682615045000001.813488171999987.68261504
5000002.313488171999987.682615045000002.813488171999987.68261504
5000003.313488171999987.682615045000003.813488171999987.68261504
5000004.313488171999987.682615045000004.813488171999987.68261504
5000005.313488171999987.682615045000005.813488171999987.68261504
5000006.313488171999987.682615045000006.813488171999987.68261504
5000007.313488171999987.682615045000007.813488171999987.68261504
5000008.313488171999987.682615045000008.813488171999987.68261504
5000009.313488171999987.682615045000000.313488171999987.18261504
5000000.813488171999987.182615045000001.313488171999987.18261504
5000001.813488171999987.182615045000002.313488171999987.18261504
5000002.813488171999987.182615045000003.313488171999987.18261504
5000003.813488171999987.182615045000004.313488171999987.18261504
5000004.813488171999987.182615045000005.313488171999987.18261504
5000005.813488171999987.182615045000006.313488171999987.18261504
5000006.813488171999987.182615045000007.313488171999987.18261504
5000007.813488171999987.182615045000008.313488171999987.18261504
5000008.813488171999987.182615045000009.313488171999987.18261504
5000000.313488171999986.682615045000000.813488171999986.68261504
5000001.313488171999986.682615045000001.813488171999986.68261504
5000002.313488171999986.682615045000002.813488171999986.68261504
5000003.313488171999986.682615045000003.813488171999986.68261504
5000004.313488171999986.682615045000004.813488171999986.68261504
5000005.313488171999986.682615045000005.813488171999986.68261504
5000006.313488171999986.682615045000006.813488171999986.68261504
5000007.313488171999986.682615045000007.813488171999986.68261504
5000008.313488171999986.682615045000008.813488171999986.68261504
5000009.313488171999986.682615045000000.313488171999986.18261504
5000000.813488171999986.182615045000001.313488171999986.18261504
5000001.813488171999986.182615045000002.313488171999986.18261504
5000002.813488171999986.182615045000003.313488171999986.18261504
5000003.813488171999986.182615045000004.313488171999986.18261504
5000004.813488171999986.182615045000005.313488171999986.18261504
5000005.813488171999986.182615045000006.313488171999986.18261504
5000006.813488171999986.182615045000007.313488171999986.18261504
5000007.813488171999986.182615045000008.313488171999986.18261504
5000008.813488171999986.182615045000009.313488171999986.18261504
5000000.313488171999985.682615045000000.813488171999985.68261504
5000001.313488171999985.682615045000001.813488171999985.68261504
5000002.313488171999985.682615045000002.813488171999985.68261504
5000003.313488171999985.682615045000003.813488171999985.68261504
5000004.313488171999985.682615045000004.813488171999985.68261504
5000005.313488171999985.682615045000005.813488171999985.68261504
5000006.313488171999985.682615045000006.813488171999985.68261504
5000007.313488171999985.682615045000007.813488171999985.68261504
5000008.313488171999985.682615045000008.813488171999985.68261504
5000009.313488171999985.682615045000000.313488171999985.18261504
5000000.813488171999985.182615045000001.313488171999985.18261504
5000001.813488171999985.182615045000002.313488171999985.18261504
5000002.813488171999985.182615045000003.313488171999985.18261504
5000003.813488171999985.182615045000004.313488171999985.18261504
5000004.813488171999985.182615045000005.313488171999985.18261504
5000005.813488171999985.182615045000006.313488171999985.18261504
5000006.813488171999985.182615045000007.313488171999985.18261504
5000007.813488171999985.182615045000008.313488171999985.18261504
5000008.813488171999985.182615045000009.313488171999985.18261504
5000000.313488171999984.682615045000000.813488171999984.68261504
5000001.313488171999984.682615045000001.813488171999984.68261504
5000002.313488171999984.682615045000002.813488171999984.68261504
5000003.313488171999984.682615045000003.813488171999984.68261504
5000004.313488171999984.682615045000004.813488171999984.68261504
5000005.313488171999984.682615045000005.813488171999984.68261504
5000006.313488171999984.682615045000006.813488171999984.68261504
5000007.313488171999984.682615045000007.813488171999984.68261504
5000008.313488171999984.682615045000008.813488171999984.68261504
5000009.313488171999984.682615045000000.313488171999984.18261504
5000000.813488171999984.182615045000001.313488171999984.18261504
5000001.813488171999984.182615045000002.313488171999984.18261504
5000002.813488171999984.182615045000003.313488171999984.18261504
5000003.813488171999984.182615045000004.313488171999984.18261504
5000004.813488171999984.182615045000005.313488171999984.18261504
5000005.813488171999984.182615045000006.313488171999984.18261504
5000006.813488171999984.182615045000007.313488171999984.18261504
5000007.813488171999984.182615045000008.313488171999984.18261504
5000008.813488171999984.182615045000009.313488171999984.18261504
5000000.313488171999983.682615045000000.813488171999983.68261504
5000001.313488171999983.682615045000001.813488171999983.68261504
5000002.313488171999983.682615045000002.813488171999983.68261504
5000003.313488171999983.682615045000003.813488171999983.68261504
5000004.313488171999983.682615045000004.813488171999983.68261504
5000005.313488171999983.682615045000005.813488171999983.68261504
5000006.313488171999983.682615045000006.813488171999983.68261504
5000007.313488171999983.682615045000007.813488171999983.68261504
5000008.313488171999983.682615045000008.813488171999983.68261504
5000009.313488171999983.682615045000000.313488171999983.18261504
5000000.813488171999983.182615045000001.313488171999983.18261504
5000001.813488171999983.182615045000002.313488171999983.18261504
5000002.813488171999983.182615045000003.313488171999983.18261504
5000003.813488171999983.182615045000004.313488171999983.18261504
5000004.813488171999983.182615045000005.313488171999983.18261504
5000005.813488171999983.182615045000006.313488171999983.18261504
5000006.813488171999983.182615045000007.313488171999983.18261504
5000007.813488171999983.182615045000008.313488171999983.18261504
5000008.813488171999983.182615045000009.313488171999983.18261504
5000000.313488171999982.682615045000000.813488171999982.68261504
5000001.313488171999982.682615045000001.813488171999982.68261504
5000002.313488171999982.682615045000002.813488171999982.68261504
5000003.313488171999982.682615045000003.813488171999982.68261504
5000004.313488171999982.682615045000004.813488171999982.68261504
5000005.313488171999982.682615045000005.813488171999982.68261504
5000006.313488171999982.682615045000006.813488171999982.68261504
5000007.313488171999982.682615045000007.813488171999982.68261504
5000008.313488171999982.682615045000008.813488171999982.68261504
5000009.313488171999982.682615045000000.313488171999982.18261504
5000000.813488171999982.182615045000001.313488171999982.18261504
5000001.813488171999982.182615045000002.313488171999982.18261504
5000002.813488171999982.182615045000003.313488171999982.18261504
5000003.813488171999982.182615045000004.313488171999982.18261504
5000004.813488171999982.182615045000005.313488171999982.18261504
5000005.813488171999982.182615045000006.313488171999982.18261504
5000006.813488171999982.182615045000007.313488171999982.18261504
5000007.813488171999982.182615045000008.313488171999982.18261504
5000008.813488171999982.182615045000009.313488171999982.18261504
5000000.313488171999981.682615045000000.813488171999981.68261504
5000001.313488171999981.682615045000001.813488171999981.68261504
5000002.313488171999981.682615045000002.813488171999981.68261504
5000003.313488171999981.682615045000003.813488171999981.68261504
5000004.313488171999981.682615045000004.813488171999981.68261504
5000005.313488171999981.682615045000005.813488171999981.68261504
5000006.313488171999981.682615045000006.813488171999981.68261504
5000007.313488171999981.682615045000007.813488171999981.68261504
5000008.313488171999981.682615045000008.813488171999981.68261504
5000009.313488171999981.682615045000000.313488171999981.18261504
5000000.813488171999981.182615045000001.313488171999981.18261504
5000001.813488171999981.182615045000002.313488171999981.18261504
5000002.813488171999981.182615045000003.313488171999981.18261504
5000003.813488171999981.182615045000004.313488171999981.18261504
5000004.813488171999981.182615045000005.313488171999981.18261504
5000005.813488171999981.182615045000006.313488171999981.18261504
5000006.813488171999981.182615045000007.313488171999981.18261504
5000007.813488171999981.182615045000008.313488171999981.18261504
5000008.813488171999981.182615045000009.313488171999981.18261504
5000000.313488171999980.682615045000000.813488171999980.68261504
5000001.313488171999980.682615045000001.813488171999980.68261504
5000002.313488171999980.682615045000002.813488171999980.68261504
5000003.313488171999980.682615045000003.813488171999980.68261504
5000004.313488171999980.682615045000004.813488171999980.68261504
5000005.313488171999980.682615045000005.813488171999980.68261504
5000006.313488171999980.682615045000006.813488171999980.68261504
5000007.313488171999980.682615045000007.813488171999980.68261504
5000008.313488171999980.682615045000008.813488171999980.68261504
5000009.313488171999980.68261504
Storage Area 2D PointsPerimeterTime=21may2024 07:37:27
Storage Area Mannings=0.018
2D Cell Volume Filter Tolerance=0.003
2D Cell Minimum Area Fraction=0.01
2D Face Profile Filter Tolerance=0.003
2D Face Area Elevation Profile Filter Tolerance=0.003
2D Face Area Elevation Conveyance Ratio=0.02
2D Face Area Laminar Depth=0.06
2D Multiple Face Mann n=0
2D Composite LC=0

BC Line Name=US                              
BC Line Storage Area=Perimeter 1     
BC Line Start Position= 5000000.81610447 , 1999999.78748602 
BC Line Middle Position= 5000000.81862804 , 1999999.48524323 
BC Line End Position= 5000000.82115162 , 1999999.18300044 
BC Line Arc= 2 
5000000.816104471999999.787486025000000.821151621999999.18300044
BC Line Text Position= 1.79769313486232E+308 , 1.79769313486232E+308 
BC Line Name=DS                              
BC Line Storage Area=Perimeter 1     
BC Line Start Position= 5000000.15943872 , 1999979.95733064 
BC Line Middle Position= 5000004.99326546 , 1999979.94875046 
BC Line End Position= 5000009.82709219 , 1999979.94017028 
BC Line Arc= 2 
5000000.159438721999979.957330645000009.827092191999979.94017028
BC Line Text Position= 1.79769313486232E+308 , 1.79769313486232E+308 
LCMann Time=may/20/2024 16:34:57
LCMann Region Time=may/20/2024 16:34:57
LCMann Table=0
Chan Stop Cuts=-1 



Use User Specified Reach Order=0
GIS Ratio Cuts To Invert=-1
GIS Limit At Bridges=0
Composite Channel Slope=5
