Geom Title=Geometry1
Program Version=6.50
Viewing Rectangle= 4999999.555 , 5000010.445 , 2000000.94735393 , 1999978.94054804 

Storage Area=Perimeter 1     ,,
Storage Area Surface Line= 5 
5000000.063488171999980.06335042                
5000000.066951371999999.93261504                
5000009.930124071999999.93066787                
5000009.927500721999980.07982073                
5000000.063488171999980.06335042                
Storage Area Type= 1 
Storage Area Area=
Storage Area Min Elev=
Storage Area Is2D=-1
Storage Area Point Generation Data=,,0.2,0.2
Storage Area 2D Points= 4851 
5000000.163488171999999.832615045000000.363488171999999.83261504
5000000.563488181999999.832615045000000.763488181999999.83261504
5000000.963488181999999.832615045000001.163488191999999.83261504
5000001.363488191999999.832615045000001.563488191999999.83261504
5000001.763488191999999.83261504 5000001.96348821999999.83261504
 5000002.16348821999999.83261504 5000002.36348821999999.83261504
5000002.563488211999999.832615045000002.763488211999999.83261504
5000002.963488211999999.832615045000003.163488221999999.83261504
5000003.363488221999999.832615045000003.563488221999999.83261504
5000003.763488221999999.832615045000003.963488231999999.83261504
5000004.163488231999999.832615045000004.363488231999999.83261504
5000004.563488241999999.832615045000004.763488241999999.83261504
5000004.963488241999999.832615045000005.163488251999999.83261504
5000005.363488251999999.832615045000005.563488251999999.83261504
5000005.763488251999999.832615045000005.963488261999999.83261504
5000006.163488261999999.832615045000006.363488261999999.83261504
5000006.563488271999999.832615045000006.763488271999999.83261504
5000006.963488271999999.832615045000007.163488281999999.83261504
5000007.363488281999999.832615045000007.563488281999999.83261504
5000007.763488281999999.832615045000007.963488291999999.83261504
5000008.163488291999999.832615045000008.363488291999999.83261504
 5000008.56348831999999.83261504 5000008.76348831999999.83261504
 5000008.96348831999999.832615045000009.163488311999999.83261504
5000009.363488311999999.832615045000009.563488311999999.83261504
5000009.763488311999999.832615045000000.163488171999999.63261504
5000000.363488171999999.632615045000000.563488181999999.63261504
5000000.763488181999999.632615045000000.963488181999999.63261504
5000001.163488191999999.632615045000001.363488191999999.63261504
5000001.563488191999999.632615045000001.763488191999999.63261504
 5000001.96348821999999.63261504 5000002.16348821999999.63261504
 5000002.36348821999999.632615045000002.563488211999999.63261504
5000002.763488211999999.632615045000002.963488211999999.63261504
5000003.163488221999999.632615045000003.363488221999999.63261504
5000003.563488221999999.632615045000003.763488221999999.63261504
5000003.963488231999999.632615045000004.163488231999999.63261504
5000004.363488231999999.632615045000004.563488241999999.63261504
5000004.763488241999999.632615045000004.963488241999999.63261504
5000005.163488251999999.632615045000005.363488251999999.63261504
5000005.563488251999999.632615045000005.763488251999999.63261504
5000005.963488261999999.632615045000006.163488261999999.63261504
5000006.363488261999999.632615045000006.563488271999999.63261504
5000006.763488271999999.632615045000006.963488271999999.63261504
5000007.163488281999999.632615045000007.363488281999999.63261504
5000007.563488281999999.632615045000007.763488281999999.63261504
5000007.963488291999999.632615045000008.163488291999999.63261504
5000008.363488291999999.63261504 5000008.56348831999999.63261504
 5000008.76348831999999.63261504 5000008.96348831999999.63261504
5000009.163488311999999.632615045000009.363488311999999.63261504
5000009.563488311999999.632615045000009.763488311999999.63261504
5000000.163488171999999.432615035000000.363488171999999.43261503
5000000.563488181999999.432615035000000.763488181999999.43261503
5000000.963488181999999.432615035000001.163488191999999.43261503
5000001.363488191999999.432615035000001.563488191999999.43261503
5000001.763488191999999.43261503 5000001.96348821999999.43261503
 5000002.16348821999999.43261503 5000002.36348821999999.43261503
5000002.563488211999999.432615035000002.763488211999999.43261503
5000002.963488211999999.432615035000003.163488221999999.43261503
5000003.363488221999999.432615035000003.563488221999999.43261503
5000003.763488221999999.432615035000003.963488231999999.43261503
5000004.163488231999999.432615035000004.363488231999999.43261503
5000004.563488241999999.432615035000004.763488241999999.43261503
5000004.963488241999999.432615035000005.163488251999999.43261503
5000005.363488251999999.432615035000005.563488251999999.43261503
5000005.763488251999999.432615035000005.963488261999999.43261503
5000006.163488261999999.432615035000006.363488261999999.43261503
5000006.563488271999999.432615035000006.763488271999999.43261503
5000006.963488271999999.432615035000007.163488281999999.43261503
5000007.363488281999999.432615035000007.563488281999999.43261503
5000007.763488281999999.432615035000007.963488291999999.43261503
5000008.163488291999999.432615035000008.363488291999999.43261503
 5000008.56348831999999.43261503 5000008.76348831999999.43261503
 5000008.96348831999999.432615035000009.163488311999999.43261503
5000009.363488311999999.432615035000009.563488311999999.43261503
5000009.763488311999999.432615035000000.163488171999999.23261503
5000000.363488171999999.232615035000000.563488181999999.23261503
5000000.763488181999999.232615035000000.963488181999999.23261503
5000001.163488191999999.232615035000001.363488191999999.23261503
5000001.563488191999999.232615035000001.763488191999999.23261503
 5000001.96348821999999.23261503 5000002.16348821999999.23261503
 5000002.36348821999999.232615035000002.563488211999999.23261503
5000002.763488211999999.232615035000002.963488211999999.23261503
5000003.163488221999999.232615035000003.363488221999999.23261503
5000003.563488221999999.232615035000003.763488221999999.23261503
5000003.963488231999999.232615035000004.163488231999999.23261503
5000004.363488231999999.232615035000004.563488241999999.23261503
5000004.763488241999999.232615035000004.963488241999999.23261503
5000005.163488251999999.232615035000005.363488251999999.23261503
5000005.563488251999999.232615035000005.763488251999999.23261503
5000005.963488261999999.232615035000006.163488261999999.23261503
5000006.363488261999999.232615035000006.563488271999999.23261503
5000006.763488271999999.232615035000006.963488271999999.23261503
5000007.163488281999999.232615035000007.363488281999999.23261503
5000007.563488281999999.232615035000007.763488281999999.23261503
5000007.963488291999999.232615035000008.163488291999999.23261503
5000008.363488291999999.23261503 5000008.56348831999999.23261503
 5000008.76348831999999.23261503 5000008.96348831999999.23261503
5000009.163488311999999.232615035000009.363488311999999.23261503
5000009.563488311999999.232615035000009.763488311999999.23261503
5000000.163488171999999.032615035000000.363488171999999.03261503
5000000.563488181999999.032615035000000.763488181999999.03261503
5000000.963488181999999.032615035000001.163488191999999.03261503
5000001.363488191999999.032615035000001.563488191999999.03261503
5000001.763488191999999.03261503 5000001.96348821999999.03261503
 5000002.16348821999999.03261503 5000002.36348821999999.03261503
5000002.563488211999999.032615035000002.763488211999999.03261503
5000002.963488211999999.032615035000003.163488221999999.03261503
5000003.363488221999999.032615035000003.563488221999999.03261503
5000003.763488221999999.032615035000003.963488231999999.03261503
5000004.163488231999999.032615035000004.363488231999999.03261503
5000004.563488241999999.032615035000004.763488241999999.03261503
5000004.963488241999999.032615035000005.163488251999999.03261503
5000005.363488251999999.032615035000005.563488251999999.03261503
5000005.763488251999999.032615035000005.963488261999999.03261503
5000006.163488261999999.032615035000006.363488261999999.03261503
5000006.563488271999999.032615035000006.763488271999999.03261503
5000006.963488271999999.032615035000007.163488281999999.03261503
5000007.363488281999999.032615035000007.563488281999999.03261503
5000007.763488281999999.032615035000007.963488291999999.03261503
5000008.163488291999999.032615035000008.363488291999999.03261503
 5000008.56348831999999.03261503 5000008.76348831999999.03261503
 5000008.96348831999999.032615035000009.163488311999999.03261503
5000009.363488311999999.032615035000009.563488311999999.03261503
5000009.763488311999999.032615035000000.163488171999998.83261502
5000000.363488171999998.832615025000000.563488181999998.83261502
5000000.763488181999998.832615025000000.963488181999998.83261502
5000001.163488191999998.832615025000001.363488191999998.83261502
5000001.563488191999998.832615025000001.763488191999998.83261502
 5000001.96348821999998.83261502 5000002.16348821999998.83261502
 5000002.36348821999998.832615025000002.563488211999998.83261502
5000002.763488211999998.832615025000002.963488211999998.83261502
5000003.163488221999998.832615025000003.363488221999998.83261502
5000003.563488221999998.832615025000003.763488221999998.83261502
5000003.963488231999998.832615025000004.163488231999998.83261502
5000004.363488231999998.832615025000004.563488241999998.83261502
5000004.763488241999998.832615025000004.963488241999998.83261502
5000005.163488251999998.832615025000005.363488251999998.83261502
5000005.563488251999998.832615025000005.763488251999998.83261502
5000005.963488261999998.832615025000006.163488261999998.83261502
5000006.363488261999998.832615025000006.563488271999998.83261502
5000006.763488271999998.832615025000006.963488271999998.83261502
5000007.163488281999998.832615025000007.363488281999998.83261502
5000007.563488281999998.832615025000007.763488281999998.83261502
5000007.963488291999998.832615025000008.163488291999998.83261502
5000008.363488291999998.83261502 5000008.56348831999998.83261502
 5000008.76348831999998.83261502 5000008.96348831999998.83261502
5000009.163488311999998.832615025000009.363488311999998.83261502
5000009.563488311999998.832615025000009.763488311999998.83261502
5000000.163488171999998.632615025000000.363488171999998.63261502
5000000.563488181999998.632615025000000.763488181999998.63261502
5000000.963488181999998.632615025000001.163488191999998.63261502
5000001.363488191999998.632615025000001.563488191999998.63261502
5000001.763488191999998.63261502 5000001.96348821999998.63261502
 5000002.16348821999998.63261502 5000002.36348821999998.63261502
5000002.563488211999998.632615025000002.763488211999998.63261502
5000002.963488211999998.632615025000003.163488221999998.63261502
5000003.363488221999998.632615025000003.563488221999998.63261502
5000003.763488221999998.632615025000003.963488231999998.63261502
5000004.163488231999998.632615025000004.363488231999998.63261502
5000004.563488241999998.632615025000004.763488241999998.63261502
5000004.963488241999998.632615025000005.163488251999998.63261502
5000005.363488251999998.632615025000005.563488251999998.63261502
5000005.763488251999998.632615025000005.963488261999998.63261502
5000006.163488261999998.632615025000006.363488261999998.63261502
5000006.563488271999998.632615025000006.763488271999998.63261502
5000006.963488271999998.632615025000007.163488281999998.63261502
5000007.363488281999998.632615025000007.563488281999998.63261502
5000007.763488281999998.632615025000007.963488291999998.63261502
5000008.163488291999998.632615025000008.363488291999998.63261502
 5000008.56348831999998.63261502 5000008.76348831999998.63261502
 5000008.96348831999998.632615025000009.163488311999998.63261502
5000009.363488311999998.632615025000009.563488311999998.63261502
5000009.763488311999998.632615025000000.163488171999998.43261502
5000000.363488171999998.432615025000000.563488181999998.43261502
5000000.763488181999998.432615025000000.963488181999998.43261502
5000001.163488191999998.432615025000001.363488191999998.43261502
5000001.563488191999998.432615025000001.763488191999998.43261502
 5000001.96348821999998.43261502 5000002.16348821999998.43261502
 5000002.36348821999998.432615025000002.563488211999998.43261502
5000002.763488211999998.432615025000002.963488211999998.43261502
5000003.163488221999998.432615025000003.363488221999998.43261502
5000003.563488221999998.432615025000003.763488221999998.43261502
5000003.963488231999998.432615025000004.163488231999998.43261502
5000004.363488231999998.432615025000004.563488241999998.43261502
5000004.763488241999998.432615025000004.963488241999998.43261502
5000005.163488251999998.432615025000005.363488251999998.43261502
5000005.563488251999998.432615025000005.763488251999998.43261502
5000005.963488261999998.432615025000006.163488261999998.43261502
5000006.363488261999998.432615025000006.563488271999998.43261502
5000006.763488271999998.432615025000006.963488271999998.43261502
5000007.163488281999998.432615025000007.363488281999998.43261502
5000007.563488281999998.432615025000007.763488281999998.43261502
5000007.963488291999998.432615025000008.163488291999998.43261502
5000008.363488291999998.43261502 5000008.56348831999998.43261502
 5000008.76348831999998.43261502 5000008.96348831999998.43261502
5000009.163488311999998.432615025000009.363488311999998.43261502
5000009.563488311999998.432615025000009.763488311999998.43261502
5000000.163488171999998.232615015000000.363488171999998.23261501
5000000.563488181999998.232615015000000.763488181999998.23261501
5000000.963488181999998.232615015000001.163488191999998.23261501
5000001.363488191999998.232615015000001.563488191999998.23261501
5000001.763488191999998.23261501 5000001.96348821999998.23261501
 5000002.16348821999998.23261501 5000002.36348821999998.23261501
5000002.563488211999998.232615015000002.763488211999998.23261501
5000002.963488211999998.232615015000003.163488221999998.23261501
5000003.363488221999998.232615015000003.563488221999998.23261501
5000003.763488221999998.232615015000003.963488231999998.23261501
5000004.163488231999998.232615015000004.363488231999998.23261501
5000004.563488241999998.232615015000004.763488241999998.23261501
5000004.963488241999998.232615015000005.163488251999998.23261501
5000005.363488251999998.232615015000005.563488251999998.23261501
5000005.763488251999998.232615015000005.963488261999998.23261501
5000006.163488261999998.232615015000006.363488261999998.23261501
5000006.563488271999998.232615015000006.763488271999998.23261501
5000006.963488271999998.232615015000007.163488281999998.23261501
5000007.363488281999998.232615015000007.563488281999998.23261501
5000007.763488281999998.232615015000007.963488291999998.23261501
5000008.163488291999998.232615015000008.363488291999998.23261501
 5000008.56348831999998.23261501 5000008.76348831999998.23261501
 5000008.96348831999998.232615015000009.163488311999998.23261501
5000009.363488311999998.232615015000009.563488311999998.23261501
5000009.763488311999998.232615015000000.163488171999998.03261501
5000000.363488171999998.032615015000000.563488181999998.03261501
5000000.763488181999998.032615015000000.963488181999998.03261501
5000001.163488191999998.032615015000001.363488191999998.03261501
5000001.563488191999998.032615015000001.763488191999998.03261501
 5000001.96348821999998.03261501 5000002.16348821999998.03261501
 5000002.36348821999998.032615015000002.563488211999998.03261501
5000002.763488211999998.032615015000002.963488211999998.03261501
5000003.163488221999998.032615015000003.363488221999998.03261501
5000003.563488221999998.032615015000003.763488221999998.03261501
5000003.963488231999998.032615015000004.163488231999998.03261501
5000004.363488231999998.032615015000004.563488241999998.03261501
5000004.763488241999998.032615015000004.963488241999998.03261501
5000005.163488251999998.032615015000005.363488251999998.03261501
5000005.563488251999998.032615015000005.763488251999998.03261501
5000005.963488261999998.032615015000006.163488261999998.03261501
5000006.363488261999998.032615015000006.563488271999998.03261501
5000006.763488271999998.032615015000006.963488271999998.03261501
5000007.163488281999998.032615015000007.363488281999998.03261501
5000007.563488281999998.032615015000007.763488281999998.03261501
5000007.963488291999998.032615015000008.163488291999998.03261501
5000008.363488291999998.03261501 5000008.56348831999998.03261501
 5000008.76348831999998.03261501 5000008.96348831999998.03261501
5000009.163488311999998.032615015000009.363488311999998.03261501
5000009.563488311999998.032615015000009.763488311999998.03261501
5000000.163488171999997.832615015000000.363488171999997.83261501
5000000.563488181999997.832615015000000.763488181999997.83261501
5000000.963488181999997.832615015000001.163488191999997.83261501
5000001.363488191999997.832615015000001.563488191999997.83261501
5000001.763488191999997.83261501 5000001.96348821999997.83261501
 5000002.16348821999997.83261501 5000002.36348821999997.83261501
5000002.563488211999997.832615015000002.763488211999997.83261501
5000002.963488211999997.832615015000003.163488221999997.83261501
5000003.363488221999997.832615015000003.563488221999997.83261501
5000003.763488221999997.832615015000003.963488231999997.83261501
5000004.163488231999997.832615015000004.363488231999997.83261501
5000004.563488241999997.832615015000004.763488241999997.83261501
5000004.963488241999997.832615015000005.163488251999997.83261501
5000005.363488251999997.832615015000005.563488251999997.83261501
5000005.763488251999997.832615015000005.963488261999997.83261501
5000006.163488261999997.832615015000006.363488261999997.83261501
5000006.563488271999997.832615015000006.763488271999997.83261501
5000006.963488271999997.832615015000007.163488281999997.83261501
5000007.363488281999997.832615015000007.563488281999997.83261501
5000007.763488281999997.832615015000007.963488291999997.83261501
5000008.163488291999997.832615015000008.363488291999997.83261501
 5000008.56348831999997.83261501 5000008.76348831999997.83261501
 5000008.96348831999997.832615015000009.163488311999997.83261501
5000009.363488311999997.832615015000009.563488311999997.83261501
5000009.763488311999997.832615015000000.163488171999997.63261501
5000000.363488171999997.632615015000000.563488181999997.63261501
5000000.763488181999997.632615015000000.963488181999997.63261501
5000001.163488191999997.632615015000001.363488191999997.63261501
5000001.563488191999997.632615015000001.763488191999997.63261501
 5000001.96348821999997.63261501 5000002.16348821999997.63261501
 5000002.36348821999997.632615015000002.563488211999997.63261501
5000002.763488211999997.632615015000002.963488211999997.63261501
5000003.163488221999997.632615015000003.363488221999997.63261501
5000003.563488221999997.632615015000003.763488221999997.63261501
5000003.963488231999997.632615015000004.163488231999997.63261501
5000004.363488231999997.632615015000004.563488241999997.63261501
5000004.763488241999997.632615015000004.963488241999997.63261501
5000005.163488251999997.632615015000005.363488251999997.63261501
5000005.563488251999997.632615015000005.763488251999997.63261501
5000005.963488261999997.632615015000006.163488261999997.63261501
5000006.363488261999997.632615015000006.563488271999997.63261501
5000006.763488271999997.632615015000006.963488271999997.63261501
5000007.163488281999997.632615015000007.363488281999997.63261501
5000007.563488281999997.632615015000007.763488281999997.63261501
5000007.963488291999997.632615015000008.163488291999997.63261501
5000008.363488291999997.63261501 5000008.56348831999997.63261501
 5000008.76348831999997.63261501 5000008.96348831999997.63261501
5000009.163488311999997.632615015000009.363488311999997.63261501
5000009.563488311999997.632615015000009.763488311999997.63261501
5000000.16348817  1999997.4326155000000.36348817  1999997.432615
5000000.56348818  1999997.4326155000000.76348818  1999997.432615
5000000.96348818  1999997.4326155000001.16348819  1999997.432615
5000001.36348819  1999997.4326155000001.56348819  1999997.432615
5000001.76348819  1999997.432615 5000001.9634882  1999997.432615
 5000002.1634882  1999997.432615 5000002.3634882  1999997.432615
5000002.56348821  1999997.4326155000002.76348821  1999997.432615
5000002.96348821  1999997.4326155000003.16348822  1999997.432615
5000003.36348822  1999997.4326155000003.56348822  1999997.432615
5000003.76348822  1999997.4326155000003.96348823  1999997.432615
5000004.16348823  1999997.4326155000004.36348823  1999997.432615
5000004.56348824  1999997.4326155000004.76348824  1999997.432615
5000004.96348824  1999997.4326155000005.16348825  1999997.432615
5000005.36348825  1999997.4326155000005.56348825  1999997.432615
5000005.76348825  1999997.4326155000005.96348826  1999997.432615
5000006.16348826  1999997.4326155000006.36348826  1999997.432615
5000006.56348827  1999997.4326155000006.76348827  1999997.432615
5000006.96348827  1999997.4326155000007.16348828  1999997.432615
5000007.36348828  1999997.4326155000007.56348828  1999997.432615
5000007.76348828  1999997.4326155000007.96348829  1999997.432615
5000008.16348829  1999997.4326155000008.36348829  1999997.432615
 5000008.5634883  1999997.432615 5000008.7634883  1999997.432615
 5000008.9634883  1999997.4326155000009.16348831  1999997.432615
5000009.36348831  1999997.4326155000009.56348831  1999997.432615
5000009.76348831  1999997.4326155000000.16348817  1999997.232615
5000000.36348817  1999997.2326155000000.56348818  1999997.232615
5000000.76348818  1999997.2326155000000.96348818  1999997.232615
5000001.16348819  1999997.2326155000001.36348819  1999997.232615
5000001.56348819  1999997.2326155000001.76348819  1999997.232615
 5000001.9634882  1999997.232615 5000002.1634882  1999997.232615
 5000002.3634882  1999997.2326155000002.56348821  1999997.232615
5000002.76348821  1999997.2326155000002.96348821  1999997.232615
5000003.16348822  1999997.2326155000003.36348822  1999997.232615
5000003.56348822  1999997.2326155000003.76348822  1999997.232615
5000003.96348823  1999997.2326155000004.16348823  1999997.232615
5000004.36348823  1999997.2326155000004.56348824  1999997.232615
5000004.76348824  1999997.2326155000004.96348824  1999997.232615
5000005.16348825  1999997.2326155000005.36348825  1999997.232615
5000005.56348825  1999997.2326155000005.76348825  1999997.232615
5000005.96348826  1999997.2326155000006.16348826  1999997.232615
5000006.36348826  1999997.2326155000006.56348827  1999997.232615
5000006.76348827  1999997.2326155000006.96348827  1999997.232615
5000007.16348828  1999997.2326155000007.36348828  1999997.232615
5000007.56348828  1999997.2326155000007.76348828  1999997.232615
5000007.96348829  1999997.2326155000008.16348829  1999997.232615
5000008.36348829  1999997.232615 5000008.5634883  1999997.232615
 5000008.7634883  1999997.232615 5000008.9634883  1999997.232615
5000009.16348831  1999997.2326155000009.36348831  1999997.232615
5000009.56348831  1999997.2326155000009.76348831  1999997.232615
5000000.16348817  1999997.0326155000000.36348817  1999997.032615
5000000.56348818  1999997.0326155000000.76348818  1999997.032615
5000000.96348818  1999997.0326155000001.16348819  1999997.032615
5000001.36348819  1999997.0326155000001.56348819  1999997.032615
5000001.76348819  1999997.032615 5000001.9634882  1999997.032615
 5000002.1634882  1999997.032615 5000002.3634882  1999997.032615
5000002.56348821  1999997.0326155000002.76348821  1999997.032615
5000002.96348821  1999997.0326155000003.16348822  1999997.032615
5000003.36348822  1999997.0326155000003.56348822  1999997.032615
5000003.76348822  1999997.0326155000003.96348823  1999997.032615
5000004.16348823  1999997.0326155000004.36348823  1999997.032615
5000004.56348824  1999997.0326155000004.76348824  1999997.032615
5000004.96348824  1999997.0326155000005.16348825  1999997.032615
5000005.36348825  1999997.0326155000005.56348825  1999997.032615
5000005.76348825  1999997.0326155000005.96348826  1999997.032615
5000006.16348826  1999997.0326155000006.36348826  1999997.032615
5000006.56348827  1999997.0326155000006.76348827  1999997.032615
5000006.96348827  1999997.0326155000007.16348828  1999997.032615
5000007.36348828  1999997.0326155000007.56348828  1999997.032615
5000007.76348828  1999997.0326155000007.96348829  1999997.032615
5000008.16348829  1999997.0326155000008.36348829  1999997.032615
 5000008.5634883  1999997.032615 5000008.7634883  1999997.032615
 5000008.9634883  1999997.0326155000009.16348831  1999997.032615
5000009.36348831  1999997.0326155000009.56348831  1999997.032615
5000009.76348831  1999997.0326155000000.163488171999996.83261499
5000000.363488171999996.832614995000000.563488181999996.83261499
5000000.763488181999996.832614995000000.963488181999996.83261499
5000001.163488191999996.832614995000001.363488191999996.83261499
5000001.563488191999996.832614995000001.763488191999996.83261499
 5000001.96348821999996.83261499 5000002.16348821999996.83261499
 5000002.36348821999996.832614995000002.563488211999996.83261499
5000002.763488211999996.832614995000002.963488211999996.83261499
5000003.163488221999996.832614995000003.363488221999996.83261499
5000003.563488221999996.832614995000003.763488221999996.83261499
5000003.963488231999996.832614995000004.163488231999996.83261499
5000004.363488231999996.832614995000004.563488241999996.83261499
5000004.763488241999996.832614995000004.963488241999996.83261499
5000005.163488251999996.832614995000005.363488251999996.83261499
5000005.563488251999996.832614995000005.763488251999996.83261499
5000005.963488261999996.832614995000006.163488261999996.83261499
5000006.363488261999996.832614995000006.563488271999996.83261499
5000006.763488271999996.832614995000006.963488271999996.83261499
5000007.163488281999996.832614995000007.363488281999996.83261499
5000007.563488281999996.832614995000007.763488281999996.83261499
5000007.963488291999996.832614995000008.163488291999996.83261499
5000008.363488291999996.83261499 5000008.56348831999996.83261499
 5000008.76348831999996.83261499 5000008.96348831999996.83261499
5000009.163488311999996.832614995000009.363488311999996.83261499
5000009.563488311999996.832614995000009.763488311999996.83261499
5000000.163488171999996.632614995000000.363488171999996.63261499
5000000.563488181999996.632614995000000.763488181999996.63261499
5000000.963488181999996.632614995000001.163488191999996.63261499
5000001.363488191999996.632614995000001.563488191999996.63261499
5000001.763488191999996.63261499 5000001.96348821999996.63261499
 5000002.16348821999996.63261499 5000002.36348821999996.63261499
5000002.563488211999996.632614995000002.763488211999996.63261499
5000002.963488211999996.632614995000003.163488221999996.63261499
5000003.363488221999996.632614995000003.563488221999996.63261499
5000003.763488221999996.632614995000003.963488231999996.63261499
5000004.163488231999996.632614995000004.363488231999996.63261499
5000004.563488241999996.632614995000004.763488241999996.63261499
5000004.963488241999996.632614995000005.163488251999996.63261499
5000005.363488251999996.632614995000005.563488251999996.63261499
5000005.763488251999996.632614995000005.963488261999996.63261499
5000006.163488261999996.632614995000006.363488261999996.63261499
5000006.563488271999996.632614995000006.763488271999996.63261499
5000006.963488271999996.632614995000007.163488281999996.63261499
5000007.363488281999996.632614995000007.563488281999996.63261499
5000007.763488281999996.632614995000007.963488291999996.63261499
5000008.163488291999996.632614995000008.363488291999996.63261499
 5000008.56348831999996.63261499 5000008.76348831999996.63261499
 5000008.96348831999996.632614995000009.163488311999996.63261499
5000009.363488311999996.632614995000009.563488311999996.63261499
5000009.763488311999996.632614995000000.163488171999996.43261499
5000000.363488171999996.432614995000000.563488181999996.43261499
5000000.763488181999996.432614995000000.963488181999996.43261499
5000001.163488191999996.432614995000001.363488191999996.43261499
5000001.563488191999996.432614995000001.763488191999996.43261499
 5000001.96348821999996.43261499 5000002.16348821999996.43261499
 5000002.36348821999996.432614995000002.563488211999996.43261499
5000002.763488211999996.432614995000002.963488211999996.43261499
5000003.163488221999996.432614995000003.363488221999996.43261499
5000003.563488221999996.432614995000003.763488221999996.43261499
5000003.963488231999996.432614995000004.163488231999996.43261499
5000004.363488231999996.432614995000004.563488241999996.43261499
5000004.763488241999996.432614995000004.963488241999996.43261499
5000005.163488251999996.432614995000005.363488251999996.43261499
5000005.563488251999996.432614995000005.763488251999996.43261499
5000005.963488261999996.432614995000006.163488261999996.43261499
5000006.363488261999996.432614995000006.563488271999996.43261499
5000006.763488271999996.432614995000006.963488271999996.43261499
5000007.163488281999996.432614995000007.363488281999996.43261499
5000007.563488281999996.432614995000007.763488281999996.43261499
5000007.963488291999996.432614995000008.163488291999996.43261499
5000008.363488291999996.43261499 5000008.56348831999996.43261499
 5000008.76348831999996.43261499 5000008.96348831999996.43261499
5000009.163488311999996.432614995000009.363488311999996.43261499
5000009.563488311999996.432614995000009.763488311999996.43261499
5000000.163488171999996.232614985000000.363488171999996.23261498
5000000.563488181999996.232614985000000.763488181999996.23261498
5000000.963488181999996.232614985000001.163488191999996.23261498
5000001.363488191999996.232614985000001.563488191999996.23261498
5000001.763488191999996.23261498 5000001.96348821999996.23261498
 5000002.16348821999996.23261498 5000002.36348821999996.23261498
5000002.563488211999996.232614985000002.763488211999996.23261498
5000002.963488211999996.232614985000003.163488221999996.23261498
5000003.363488221999996.232614985000003.563488221999996.23261498
5000003.763488221999996.232614985000003.963488231999996.23261498
5000004.163488231999996.232614985000004.363488231999996.23261498