Geom Title=Geometry1
Program Version=6.50
Viewing Rectangle= 4999999.555 , 5000010.445 , 2000000.94735393 , 1999978.98932102 

Storage Area=Perimeter 1     ,,
Storage Area Surface Line= 5 
5000000.063488171999980.06335042                
5000000.066951371999999.93261504                
5000009.930124071999999.93066787                
5000009.927500721999980.07982073                
5000000.063488171999980.06335042                
Storage Area Type= 1 
Storage Area Area=
Storage Area Min Elev=
Storage Area Is2D=-1
Storage Area Point Generation Data=,,0.05,0.05
Storage Area 2D Points= 78209 
5000000.088488171999999.907615045000000.138488171999999.90761504
5000000.188488171999999.907615045000000.238488171999999.90761504
5000000.288488171999999.907615045000000.338488171999999.90761504
5000000.388488171999999.907615045000000.438488181999999.90761504
5000000.488488181999999.907615045000000.538488181999999.90761504
5000000.588488181999999.907615045000000.638488181999999.90761504
5000000.688488181999999.907615045000000.738488181999999.90761504
5000000.788488181999999.907615045000000.838488181999999.90761504
5000000.888488181999999.907615045000000.938488181999999.90761504
5000000.988488181999999.907615045000001.038488181999999.90761504
5000001.088488181999999.907615045000001.138488191999999.90761504
5000001.188488191999999.907615045000001.238488191999999.90761504
5000001.288488191999999.907615045000001.338488191999999.90761504
5000001.388488191999999.907615045000001.438488191999999.90761504
5000001.488488191999999.907615045000001.538488191999999.90761504
5000001.588488191999999.907615045000001.638488191999999.90761504
5000001.688488191999999.907615045000001.738488191999999.90761504
 5000001.78848821999999.90761504 5000001.83848821999999.90761504
 5000001.88848821999999.90761504 5000001.93848821999999.90761504
 5000001.98848821999999.90761504 5000002.03848821999999.90761504
 5000002.08848821999999.90761504 5000002.13848821999999.90761504
 5000002.18848821999999.90761504 5000002.23848821999999.90761504
 5000002.28848821999999.90761504 5000002.33848821999999.90761504
 5000002.38848821999999.907615045000002.438488211999999.90761504
5000002.488488211999999.907615045000002.538488211999999.90761504
5000002.588488211999999.907615045000002.638488211999999.90761504
5000002.688488211999999.907615045000002.738488211999999.90761504
5000002.788488211999999.907615045000002.838488211999999.90761504
5000002.888488211999999.907615045000002.938488211999999.90761504
5000002.988488211999999.907615045000003.038488211999999.90761504
5000003.088488211999999.907615045000003.138488221999999.90761504
5000003.188488221999999.907615045000003.238488221999999.90761504
5000003.288488221999999.907615045000003.338488221999999.90761504
5000003.388488221999999.907615045000003.438488221999999.90761504
5000003.488488221999999.907615045000003.538488221999999.90761504
5000003.588488221999999.907615045000003.638488221999999.90761504
5000003.688488221999999.907615045000003.738488221999999.90761504
5000003.788488231999999.907615045000003.838488231999999.90761504
5000003.888488231999999.907615045000003.938488231999999.90761504
5000003.988488231999999.907615045000004.038488231999999.90761504
5000004.088488231999999.907615045000004.138488231999999.90761504
5000004.188488231999999.907615045000004.238488231999999.90761504
5000004.288488231999999.907615045000004.338488231999999.90761504
5000004.388488231999999.907615045000004.438488231999999.90761504
5000004.488488241999999.907615045000004.538488241999999.90761504
5000004.588488241999999.907615045000004.638488241999999.90761504
5000004.688488241999999.907615045000004.738488241999999.90761504
5000004.788488241999999.907615045000004.838488241999999.90761504
5000004.888488241999999.907615045000004.938488241999999.90761504
5000004.988488241999999.907615045000005.038488241999999.90761504
5000005.088488241999999.907615045000005.138488251999999.90761504
5000005.188488251999999.907615045000005.238488251999999.90761504
5000005.288488251999999.907615045000005.338488251999999.90761504
5000005.388488251999999.907615045000005.438488251999999.90761504
5000005.488488251999999.907615045000005.538488251999999.90761504
5000005.588488251999999.907615045000005.638488251999999.90761504
5000005.688488251999999.907615045000005.738488251999999.90761504
5000005.788488251999999.907615045000005.838488261999999.90761504
5000005.888488261999999.907615045000005.938488261999999.90761504
5000005.988488261999999.907615045000006.038488261999999.90761504
5000006.088488261999999.907615045000006.138488261999999.90761504
5000006.188488261999999.907615045000006.238488261999999.90761504
5000006.288488261999999.907615045000006.338488261999999.90761504
5000006.388488261999999.907615045000006.438488261999999.90761504
5000006.488488271999999.907615045000006.538488271999999.90761504
5000006.588488271999999.907615045000006.638488271999999.90761504
5000006.688488271999999.907615045000006.738488271999999.90761504
5000006.788488271999999.907615045000006.838488271999999.90761504
5000006.888488271999999.907615045000006.938488271999999.90761504
5000006.988488271999999.907615045000007.038488271999999.90761504
5000007.088488271999999.907615045000007.138488281999999.90761504
5000007.188488281999999.907615045000007.238488281999999.90761504
5000007.288488281999999.907615045000007.338488281999999.90761504
5000007.388488281999999.907615045000007.438488281999999.90761504
5000007.488488281999999.907615045000007.538488281999999.90761504
5000007.588488281999999.907615045000007.638488281999999.90761504
5000007.688488281999999.907615045000007.738488281999999.90761504
5000007.788488281999999.907615045000007.838488291999999.90761504
5000007.888488291999999.907615045000007.938488291999999.90761504
5000007.988488291999999.907615045000008.038488291999999.90761504
5000008.088488291999999.907615045000008.138488291999999.90761504
5000008.188488291999999.907615045000008.238488291999999.90761504
5000008.288488291999999.907615045000008.338488291999999.90761504
5000008.388488291999999.907615045000008.438488291999999.90761504
 5000008.48848831999999.90761504 5000008.53848831999999.90761504
 5000008.58848831999999.90761504 5000008.63848831999999.90761504
 5000008.68848831999999.90761504 5000008.73848831999999.90761504
 5000008.78848831999999.90761504 5000008.83848831999999.90761504
 5000008.88848831999999.90761504 5000008.93848831999999.90761504
 5000008.98848831999999.90761504 5000009.03848831999999.90761504
 5000009.08848831999999.90761504 5000009.13848831999999.90761504
5000009.188488311999999.907615045000009.238488311999999.90761504
5000009.288488311999999.907615045000009.338488311999999.90761504
5000009.388488311999999.907615045000009.438488311999999.90761504
5000009.488488311999999.907615045000009.538488311999999.90761504
5000009.588488311999999.907615045000009.638488311999999.90761504
5000009.688488311999999.907615045000009.738488311999999.90761504
5000009.788488311999999.907615045000009.838488321999999.90761504
5000009.888488321999999.907615045000000.088488171999999.85761504
5000000.138488171999999.857615045000000.188488171999999.85761504
5000000.238488171999999.857615045000000.288488171999999.85761504
5000000.338488171999999.857615045000000.388488171999999.85761504
5000000.438488181999999.857615045000000.488488181999999.85761504
5000000.538488181999999.857615045000000.588488181999999.85761504
5000000.638488181999999.857615045000000.688488181999999.85761504
5000000.738488181999999.857615045000000.788488181999999.85761504
5000000.838488181999999.857615045000000.888488181999999.85761504
5000000.938488181999999.857615045000000.988488181999999.85761504
5000001.038488181999999.857615045000001.088488181999999.85761504
5000001.138488191999999.857615045000001.188488191999999.85761504
5000001.238488191999999.857615045000001.288488191999999.85761504
5000001.338488191999999.857615045000001.388488191999999.85761504
5000001.438488191999999.857615045000001.488488191999999.85761504
5000001.538488191999999.857615045000001.588488191999999.85761504
5000001.638488191999999.857615045000001.688488191999999.85761504
5000001.738488191999999.85761504 5000001.78848821999999.85761504
 5000001.83848821999999.85761504 5000001.88848821999999.85761504
 5000001.93848821999999.85761504 5000001.98848821999999.85761504
 5000002.03848821999999.85761504 5000002.08848821999999.85761504
 5000002.13848821999999.85761504 5000002.18848821999999.85761504
 5000002.23848821999999.85761504 5000002.28848821999999.85761504
 5000002.33848821999999.85761504 5000002.38848821999999.85761504
5000002.438488211999999.857615045000002.488488211999999.85761504
5000002.538488211999999.857615045000002.588488211999999.85761504
5000002.638488211999999.857615045000002.688488211999999.85761504
5000002.738488211999999.857615045000002.788488211999999.85761504
5000002.838488211999999.857615045000002.888488211999999.85761504
5000002.938488211999999.857615045000002.988488211999999.85761504
5000003.038488211999999.857615045000003.088488211999999.85761504
5000003.138488221999999.857615045000003.188488221999999.85761504
5000003.238488221999999.857615045000003.288488221999999.85761504
5000003.338488221999999.857615045000003.388488221999999.85761504
5000003.438488221999999.857615045000003.488488221999999.85761504
5000003.538488221999999.857615045000003.588488221999999.85761504
5000003.638488221999999.857615045000003.688488221999999.85761504
5000003.738488221999999.857615045000003.788488231999999.85761504
5000003.838488231999999.857615045000003.888488231999999.85761504
5000003.938488231999999.857615045000003.988488231999999.85761504
5000004.038488231999999.857615045000004.088488231999999.85761504
5000004.138488231999999.857615045000004.188488231999999.85761504
5000004.238488231999999.857615045000004.288488231999999.85761504
5000004.338488231999999.857615045000004.388488231999999.85761504
5000004.438488231999999.857615045000004.488488241999999.85761504
5000004.538488241999999.857615045000004.588488241999999.85761504
5000004.638488241999999.857615045000004.688488241999999.85761504
5000004.738488241999999.857615045000004.788488241999999.85761504
5000004.838488241999999.857615045000004.888488241999999.85761504
5000004.938488241999999.857615045000004.988488241999999.85761504
5000005.038488241999999.857615045000005.088488241999999.85761504
5000005.138488251999999.857615045000005.188488251999999.85761504
5000005.238488251999999.857615045000005.288488251999999.85761504
5000005.338488251999999.857615045000005.388488251999999.85761504
5000005.438488251999999.857615045000005.488488251999999.85761504
5000005.538488251999999.857615045000005.588488251999999.85761504
5000005.638488251999999.857615045000005.688488251999999.85761504
5000005.738488251999999.857615045000005.788488251999999.85761504
5000005.838488261999999.857615045000005.888488261999999.85761504
5000005.938488261999999.857615045000005.988488261999999.85761504
5000006.038488261999999.857615045000006.088488261999999.85761504
5000006.138488261999999.857615045000006.188488261999999.85761504
5000006.238488261999999.857615045000006.288488261999999.85761504
5000006.338488261999999.857615045000006.388488261999999.85761504
5000006.438488261999999.857615045000006.488488271999999.85761504
5000006.538488271999999.857615045000006.588488271999999.85761504
5000006.638488271999999.857615045000006.688488271999999.85761504
5000006.738488271999999.857615045000006.788488271999999.85761504
5000006.838488271999999.857615045000006.888488271999999.85761504
5000006.938488271999999.857615045000006.988488271999999.85761504
5000007.038488271999999.857615045000007.088488271999999.85761504
5000007.138488281999999.857615045000007.188488281999999.85761504
5000007.238488281999999.857615045000007.288488281999999.85761504
5000007.338488281999999.857615045000007.388488281999999.85761504
5000007.438488281999999.857615045000007.488488281999999.85761504
5000007.538488281999999.857615045000007.588488281999999.85761504
5000007.638488281999999.857615045000007.688488281999999.85761504
5000007.738488281999999.857615045000007.788488281999999.85761504
5000007.838488291999999.857615045000007.888488291999999.85761504
5000007.938488291999999.857615045000007.988488291999999.85761504
5000008.038488291999999.857615045000008.088488291999999.85761504
5000008.138488291999999.857615045000008.188488291999999.85761504
5000008.238488291999999.857615045000008.288488291999999.85761504
5000008.338488291999999.857615045000008.388488291999999.85761504
5000008.438488291999999.85761504 5000008.48848831999999.85761504
 5000008.53848831999999.85761504 5000008.58848831999999.85761504
 5000008.63848831999999.85761504 5000008.68848831999999.85761504
 5000008.73848831999999.85761504 5000008.78848831999999.85761504
 5000008.83848831999999.85761504 5000008.88848831999999.85761504
 5000008.93848831999999.85761504 5000008.98848831999999.85761504
 5000009.03848831999999.85761504 5000009.08848831999999.85761504
 5000009.13848831999999.857615045000009.188488311999999.85761504
5000009.238488311999999.857615045000009.288488311999999.85761504
5000009.338488311999999.857615045000009.388488311999999.85761504
5000009.438488311999999.857615045000009.488488311999999.85761504
5000009.538488311999999.857615045000009.588488311999999.85761504
5000009.638488311999999.857615045000009.688488311999999.85761504
5000009.738488311999999.857615045000009.788488311999999.85761504
5000009.838488321999999.857615045000009.888488321999999.85761504
5000000.088488171999999.807615045000000.138488171999999.80761504
5000000.188488171999999.807615045000000.238488171999999.80761504
5000000.288488171999999.807615045000000.338488171999999.80761504
5000000.388488171999999.807615045000000.438488181999999.80761504
5000000.488488181999999.807615045000000.538488181999999.80761504
5000000.588488181999999.807615045000000.638488181999999.80761504
5000000.688488181999999.807615045000000.738488181999999.80761504
5000000.788488181999999.807615045000000.838488181999999.80761504
5000000.888488181999999.807615045000000.938488181999999.80761504
5000000.988488181999999.807615045000001.038488181999999.80761504
5000001.088488181999999.807615045000001.138488191999999.80761504
5000001.188488191999999.807615045000001.238488191999999.80761504
5000001.288488191999999.807615045000001.338488191999999.80761504
5000001.388488191999999.807615045000001.438488191999999.80761504
5000001.488488191999999.807615045000001.538488191999999.80761504
5000001.588488191999999.807615045000001.638488191999999.80761504
5000001.688488191999999.807615045000001.738488191999999.80761504
 5000001.78848821999999.80761504 5000001.83848821999999.80761504
 5000001.88848821999999.80761504 5000001.93848821999999.80761504
 5000001.98848821999999.80761504 5000002.03848821999999.80761504
 5000002.08848821999999.80761504 5000002.13848821999999.80761504
 5000002.18848821999999.80761504 5000002.23848821999999.80761504
 5000002.28848821999999.80761504 5000002.33848821999999.80761504
 5000002.38848821999999.807615045000002.438488211999999.80761504
5000002.488488211999999.807615045000002.538488211999999.80761504
5000002.588488211999999.807615045000002.638488211999999.80761504
5000002.688488211999999.807615045000002.738488211999999.80761504
5000002.788488211999999.807615045000002.838488211999999.80761504
5000002.888488211999999.807615045000002.938488211999999.80761504
5000002.988488211999999.807615045000003.038488211999999.80761504
5000003.088488211999999.807615045000003.138488221999999.80761504
5000003.188488221999999.807615045000003.238488221999999.80761504
5000003.288488221999999.807615045000003.338488221999999.80761504
5000003.388488221999999.807615045000003.438488221999999.80761504
5000003.488488221999999.807615045000003.538488221999999.80761504
5000003.588488221999999.807615045000003.638488221999999.80761504
5000003.688488221999999.807615045000003.738488221999999.80761504
5000003.788488231999999.807615045000003.838488231999999.80761504
5000003.888488231999999.807615045000003.938488231999999.80761504
5000003.988488231999999.807615045000004.038488231999999.80761504
5000004.088488231999999.807615045000004.138488231999999.80761504
5000004.188488231999999.807615045000004.238488231999999.80761504
5000004.288488231999999.807615045000004.338488231999999.80761504
5000004.388488231999999.807615045000004.438488231999999.80761504
5000004.488488241999999.807615045000004.538488241999999.80761504
5000004.588488241999999.807615045000004.638488241999999.80761504
5000004.688488241999999.807615045000004.738488241999999.80761504
5000004.788488241999999.807615045000004.838488241999999.80761504
5000004.888488241999999.807615045000004.938488241999999.80761504
5000004.988488241999999.807615045000005.038488241999999.80761504
5000005.088488241999999.807615045000005.138488251999999.80761504
5000005.188488251999999.807615045000005.238488251999999.80761504
5000005.288488251999999.807615045000005.338488251999999.80761504
5000005.388488251999999.807615045000005.438488251999999.80761504
5000005.488488251999999.807615045000005.538488251999999.80761504
5000005.588488251999999.807615045000005.638488251999999.80761504
5000005.688488251999999.807615045000005.738488251999999.80761504
5000005.788488251999999.807615045000005.838488261999999.80761504
5000005.888488261999999.807615045000005.938488261999999.80761504
5000005.988488261999999.807615045000006.038488261999999.80761504
5000006.088488261999999.807615045000006.138488261999999.80761504
5000006.188488261999999.807615045000006.238488261999999.80761504
5000006.288488261999999.807615045000006.338488261999999.80761504
5000006.388488261999999.807615045000006.438488261999999.80761504
5000006.488488271999999.807615045000006.538488271999999.80761504
5000006.588488271999999.807615045000006.638488271999999.80761504
5000006.688488271999999.807615045000006.738488271999999.80761504
5000006.788488271999999.807615045000006.838488271999999.80761504
5000006.888488271999999.807615045000006.938488271999999.80761504
5000006.988488271999999.807615045000007.038488271999999.80761504
5000007.088488271999999.807615045000007.138488281999999.80761504
5000007.188488281999999.807615045000007.238488281999999.80761504
5000007.288488281999999.807615045000007.338488281999999.80761504
5000007.388488281999999.807615045000007.438488281999999.80761504
5000007.488488281999999.807615045000007.538488281999999.80761504
5000007.588488281999999.807615045000007.638488281999999.80761504
5000007.688488281999999.807615045000007.738488281999999.80761504
5000007.788488281999999.807615045000007.838488291999999.80761504
5000007.888488291999999.807615045000007.938488291999999.80761504
5000007.988488291999999.807615045000008.038488291999999.80761504
5000008.088488291999999.807615045000008.138488291999999.80761504
5000008.188488291999999.807615045000008.238488291999999.80761504
5000008.288488291999999.807615045000008.338488291999999.80761504
5000008.388488291999999.807615045000008.438488291999999.80761504
 5000008.48848831999999.80761504 5000008.53848831999999.80761504
 5000008.58848831999999.80761504 5000008.63848831999999.80761504
 5000008.68848831999999.80761504 5000008.73848831999999.80761504
 5000008.78848831999999.80761504 5000008.83848831999999.80761504
 5000008.88848831999999.80761504 5000008.93848831999999.80761504
 5000008.98848831999999.80761504 5000009.03848831999999.80761504
 5000009.08848831999999.80761504 5000009.13848831999999.80761504
5000009.188488311999999.807615045000009.238488311999999.80761504
5000009.288488311999999.807615045000009.338488311999999.80761504
5000009.388488311999999.807615045000009.438488311999999.80761504
5000009.488488311999999.807615045000009.538488311999999.80761504
5000009.588488311999999.807615045000009.638488311999999.80761504
5000009.688488311999999.807615045000009.738488311999999.80761504
5000009.788488311999999.807615045000009.838488321999999.80761504
5000009.888488321999999.807615045000000.088488171999999.75761504
5000000.138488171999999.757615045000000.188488171999999.75761504
5000000.238488171999999.757615045000000.288488171999999.75761504
5000000.338488171999999.757615045000000.388488171999999.75761504
5000000.438488181999999.757615045000000.488488181999999.75761504
5000000.538488181999999.757615045000000.588488181999999.75761504
5000000.638488181999999.757615045000000.688488181999999.75761504
5000000.738488181999999.757615045000000.788488181999999.75761504
5000000.838488181999999.757615045000000.888488181999999.75761504
5000000.938488181999999.757615045000000.988488181999999.75761504
5000001.038488181999999.757615045000001.088488181999999.75761504
5000001.138488191999999.757615045000001.188488191999999.75761504
5000001.238488191999999.757615045000001.288488191999999.75761504
5000001.338488191999999.757615045000001.388488191999999.75761504
5000001.438488191999999.757615045000001.488488191999999.75761504
5000001.538488191999999.757615045000001.588488191999999.75761504
5000001.638488191999999.757615045000001.688488191999999.75761504
5000001.738488191999999.75761504 5000001.78848821999999.75761504
 5000001.83848821999999.75761504 5000001.88848821999999.75761504
 5000001.93848821999999.75761504 5000001.98848821999999.75761504
 5000002.03848821999999.75761504 5000002.08848821999999.75761504
 5000002.13848821999999.75761504 5000002.18848821999999.75761504
 5000002.23848821999999.75761504 5000002.28848821999999.75761504
 5000002.33848821999999.75761504 5000002.38848821999999.75761504
5000002.438488211999999.757615045000002.488488211999999.75761504
5000002.538488211999999.757615045000002.588488211999999.75761504
5000002.638488211999999.757615045000002.688488211999999.75761504
5000002.738488211999999.757615045000002.788488211999999.75761504
5000002.838488211999999.757615045000002.888488211999999.75761504
5000002.938488211999999.757615045000002.988488211999999.75761504
5000003.038488211999999.757615045000003.088488211999999.75761504
5000003.138488221999999.757615045000003.188488221999999.75761504
5000003.238488221999999.757615045000003.288488221999999.75761504
5000003.338488221999999.757615045000003.388488221999999.75761504
5000003.438488221999999.757615045000003.488488221999999.75761504
5000003.538488221999999.757615045000003.588488221999999.75761504
5000003.638488221999999.757615045000003.688488221999999.75761504
5000003.738488221999999.757615045000003.788488231999999.75761504
5000003.838488231999999.757615045000003.888488231999999.75761504
5000003.938488231999999.757615045000003.988488231999999.75761504
5000004.038488231999999.757615045000004.088488231999999.75761504
5000004.138488231999999.757615045000004.188488231999999.75761504
5000004.238488231999999.757615045000004.288488231999999.75761504
5000004.338488231999999.757615045000004.388488231999999.75761504
5000004.438488231999999.757615045000004.488488241999999.75761504
5000004.538488241999999.757615045000004.588488241999999.75761504
5000004.638488241999999.757615045000004.688488241999999.75761504
5000004.738488241999999.757615045000004.788488241999999.75761504
5000004.838488241999999.757615045000004.888488241999999.75761504
5000004.938488241999999.757615045000004.988488241999999.75761504
5000005.038488241999999.757615045000005.088488241999999.75761504
5000005.138488251999999.757615045000005.188488251999999.75761504
5000005.238488251999999.757615045000005.288488251999999.75761504
5000005.338488251999999.757615045000005.388488251999999.75761504
5000005.438488251999999.757615045000005.488488251999999.75761504
5000005.538488251999999.757615045000005.588488251999999.75761504
5000005.638488251999999.757615045000005.688488251999999.75761504
5000005.738488251999999.757615045000005.788488251999999.75761504
5000005.838488261999999.757615045000005.888488261999999.75761504
5000005.938488261999999.757615045000005.988488261999999.75761504
5000006.038488261999999.757615045000006.088488261999999.75761504
5000006.138488261999999.757615045000006.188488261999999.75761504
5000006.238488261999999.757615045000006.288488261999999.75761504
5000006.338488261999999.757615045000006.388488261999999.75761504
5000006.438488261999999.757615045000006.488488271999999.75761504
5000006.538488271999999.757615045000006.588488271999999.75761504
5000006.638488271999999.757615045000006.688488271999999.75761504
5000006.738488271999999.757615045000006.788488271999999.75761504
5000006.838488271999999.757615045000006.888488271999999.75761504
5000006.938488271999999.757615045000006.988488271999999.75761504
5000007.038488271999999.757615045000007.088488271999999.75761504
5000007.138488281999999.757615045000007.188488281999999.75761504
5000007.238488281999999.757615045000007.288488281999999.75761504
5000007.338488281999999.757615045000007.388488281999999.75761504
5000007.438488281999999.757615045000007.488488281999999.75761504
5000007.538488281999999.757615045000007.588488281999999.75761504
5000007.638488281999999.757615045000007.688488281999999.75761504
5000007.738488281999999.757615045000007.788488281999999.75761504
5000007.838488291999999.757615045000007.888488291999999.75761504
5000007.938488291999999.757615045000007.988488291999999.75761504
5000008.038488291999999.757615045000008.088488291999999.75761504
5000008.138488291999999.757615045000008.188488291999999.75761504
5000008.238488291999999.757615045000008.288488291999999.75761504
5000008.338488291999999.757615045000008.388488291999999.75761504
5000008.438488291999999.75761504 5000008.48848831999999.75761504
 5000008.53848831999999.75761504 5000008.58848831999999.75761504
 5000008.63848831999999.75761504 5000008.68848831999999.75761504
 5000008.73848831999999.75761504 5000008.78848831999999.75761504
 5000008.83848831999999.75761504 5000008.88848831999999.75761504
 5000008.93848831999999.75761504 5000008.98848831999999.75761504
 5000009.03848831999999.75761504 5000009.08848831999999.75761504
 5000009.13848831999999.757615045000009.188488311999999.75761504
5000009.238488311999999.757615045000009.288488311999999.75761504
5000009.338488311999999.757615045000009.388488311999999.75761504
5000009.438488311999999.757615045000009.488488311999999.75761504
5000009.538488311999999.757615045000009.588488311999999.75761504
5000009.638488311999999.757615045000009.688488311999999.75761504
5000009.738488311999999.757615045000009.788488311999999.75761504
5000009.838488321999999.757615045000009.888488321999999.75761504
5000000.088488171999999.707615045000000.138488171999999.70761504
5000000.188488171999999.707615045000000.238488171999999.70761504
5000000.288488171999999.707615045000000.338488171999999.70761504
5000000.388488171999999.707615045000000.438488181999999.70761504
5000000.488488181999999.707615045000000.538488181999999.70761504
5000000.588488181999999.707615045000000.638488181999999.70761504
5000000.688488181999999.707615045000000.738488181999999.70761504
5000000.788488181999999.707615045000000.838488181999999.70761504
5000000.888488181999999.707615045000000.938488181999999.70761504
5000000.988488181999999.707615045000001.038488181999999.70761504
5000001.088488181999999.707615045000001.138488191999999.70761504
5000001.188488191999999.707615045000001.238488191999999.70761504
5000001.288488191999999.707615045000001.338488191999999.70761504
5000001.388488191999999.707615045000001.438488191999999.70761504
5000001.488488191999999.707615045000001.538488191999999.70761504
5000001.588488191999999.707615045000001.638488191999999.70761504
5000001.688488191999999.707615045000001.738488191999999.70761504
 5000001.78848821999999.70761504 5000001.83848821999999.70761504
 5000001.88848821999999.70761504 5000001.93848821999999.70761504
 5000001.98848821999999.70761504 5000002.03848821999999.70761504
 5000002.08848821999999.70761504 5000002.13848821999999.70761504
 5000002.18848821999999.70761504 5000002.23848821999999.70761504
 5000002.28848821999999.70761504 5000002.33848821999999.70761504
 5000002.38848821999999.707615045000002.438488211999999.70761504
5000002.488488211999999.707615045000002.538488211999999.70761504
5000002.588488211999999.707615045000002.638488211999999.70761504
5000002.688488211999999.707615045000002.738488211999999.70761504
5000002.788488211999999.707615045000002.838488211999999.70761504
5000002.888488211999999.707615045000002.938488211999999.70761504
5000002.988488211999999.707615045000003.038488211999999.70761504
5000003.088488211999999.707615045000003.138488221999999.70761504
5000003.188488221999999.707615045000003.238488221999999.70761504
5000003.288488221999999.707615045000003.338488221999999.70761504
5000003.388488221999999.707615045000003.438488221999999.70761504
5000003.488488221999999.707615045000003.538488221999999.70761504
5000003.588488221999999.707615045000003.638488221999999.70761504
5000003.688488221999999.707615045000003.738488221999999.70761504
5000003.788488231999999.707615045000003.838488231999999.70761504
5000003.888488231999999.707615045000003.938488231999999.70761504
5000003.988488231999999.707615045000004.038488231999999.70761504
5000004.088488231999999.707615045000004.138488231999999.70761504
5000004.188488231999999.707615045000004.238488231999999.70761504
5000004.288488231999999.707615045000004.338488231999999.70761504
5000004.388488231999999.707615045000004.438488231999999.70761504
5000004.488488241999999.707615045000004.538488241999999.70761504
5000004.588488241999999.707615045000004.638488241999999.70761504
5000004.688488241999999.707615045000004.738488241999999.70761504
5000004.788488241999999.707615045000004.838488241999999.70761504
5000004.888488241999999.707615045000004.938488241999999.70761504
5000004.988488241999999.707615045000005.038488241999999.70761504
5000005.088488241999999.707615045000005.138488251999999.70761504
5000005.188488251999999.707615045000005.238488251999999.70761504
5000005.288488251999999.707615045000005.338488251999999.70761504
5000005.388488251999999.707615045000005.438488251999999.70761504
5000005.488488251999999.707615045000005.538488251999999.70761504
5000005.588488251999999.707615045000005.638488251999999.70761504
5000005.688488251999999.707615045000005.738488251999999.70761504
5000005.788488251999999.707615045000005.838488261999999.70761504