Geom Title=HDitchL20W10D1CSlp01SSlp02_G02
Program Version=6.50
Viewing Rectangle= 4999999.555 , 5000010.445 , 2000000.95342975 , 1999978.87797533 

Storage Area=Perimeter 1     ,5000005,1999990
Storage Area Surface Line= 599 
      5000000.05      1999999.95                
     5000000.149      1999999.95                
     5000000.248      1999999.95                
     5000000.347      1999999.95                
     5000000.446      1999999.95                
     5000000.545      1999999.95                
     5000000.644      1999999.95                
     5000000.743      1999999.95                
     5000000.842      1999999.95                
     5000000.941      1999999.95                
      5000001.04      1999999.95                
     5000001.139      1999999.95                
     5000001.238      1999999.95                
     5000001.337      1999999.95                
     5000001.436      1999999.95                
     5000001.535      1999999.95                
     5000001.634      1999999.95                
     5000001.733      1999999.95                
     5000001.832      1999999.95                
     5000001.931      1999999.95                
      5000002.03      1999999.95                
     5000002.129      1999999.95                
     5000002.228      1999999.95                
     5000002.327      1999999.95                
     5000002.426      1999999.95                
     5000002.525      1999999.95                
     5000002.624      1999999.95                
     5000002.723      1999999.95                
     5000002.822      1999999.95                
     5000002.921      1999999.95                
      5000003.02      1999999.95                
     5000003.119      1999999.95                
     5000003.218      1999999.95                
     5000003.317      1999999.95                
     5000003.416      1999999.95                
     5000003.515      1999999.95                
     5000003.614      1999999.95                
     5000003.713      1999999.95                
     5000003.812      1999999.95                
     5000003.911      1999999.95                
      5000004.01      1999999.95                
     5000004.109      1999999.95                
     5000004.208      1999999.95                
     5000004.307      1999999.95                
     5000004.406      1999999.95                
     5000004.505      1999999.95                
     5000004.604      1999999.95                
     5000004.703      1999999.95                
     5000004.802      1999999.95                
     5000004.901      1999999.95                
        5000005.      1999999.95                
     5000005.099      1999999.95                
     5000005.198      1999999.95                
     5000005.297      1999999.95                
     5000005.396      1999999.95                
     5000005.495      1999999.95                
     5000005.594      1999999.95                
     5000005.693      1999999.95                
     5000005.792      1999999.95                
     5000005.891      1999999.95                
      5000005.99      1999999.95                
     5000006.089      1999999.95                
     5000006.188      1999999.95                
     5000006.287      1999999.95                
     5000006.386      1999999.95                
     5000006.485      1999999.95                
     5000006.584      1999999.95                
     5000006.683      1999999.95                
     5000006.782      1999999.95                
     5000006.881      1999999.95                
      5000006.98      1999999.95                
     5000007.079      1999999.95                
     5000007.178      1999999.95                
     5000007.277      1999999.95                
     5000007.376      1999999.95                
     5000007.475      1999999.95                
     5000007.574      1999999.95                
     5000007.673      1999999.95                
     5000007.772      1999999.95                
     5000007.871      1999999.95                
      5000007.97      1999999.95                
     5000008.069      1999999.95                
     5000008.168      1999999.95                
     5000008.267      1999999.95                
     5000008.366      1999999.95                
     5000008.465      1999999.95                
     5000008.564      1999999.95                
     5000008.663      1999999.95                
     5000008.762      1999999.95                
     5000008.861      1999999.95                
      5000008.96      1999999.95                
     5000009.059      1999999.95                
     5000009.158      1999999.95                
     5000009.257      1999999.95                
     5000009.356      1999999.95                
     5000009.455      1999999.95                
     5000009.554      1999999.95                
     5000009.653      1999999.95                
     5000009.752      1999999.95                
     5000009.851      1999999.95                
      5000009.95      1999999.95                
      5000009.95      1999999.85                
      5000009.95      1999999.75                
      5000009.95      1999999.65                
      5000009.95      1999999.55                
      5000009.95      1999999.45                
      5000009.95      1999999.35                
      5000009.95      1999999.25                
      5000009.95      1999999.15                
      5000009.95      1999999.05                
      5000009.95      1999998.95                
      5000009.95      1999998.85                
      5000009.95      1999998.75                
      5000009.95      1999998.65                
      5000009.95      1999998.55                
      5000009.95      1999998.45                
      5000009.95      1999998.35                
      5000009.95      1999998.25                
      5000009.95      1999998.15                
      5000009.95      1999998.05                
      5000009.95      1999997.95                
      5000009.95      1999997.85                
      5000009.95      1999997.75                
      5000009.95      1999997.65                
      5000009.95      1999997.55                
      5000009.95      1999997.45                
      5000009.95      1999997.35                
      5000009.95      1999997.25                
      5000009.95      1999997.15                
      5000009.95      1999997.05                
      5000009.95      1999996.95                
      5000009.95      1999996.85                
      5000009.95      1999996.75                
      5000009.95      1999996.65                
      5000009.95      1999996.55                
      5000009.95      1999996.45                
      5000009.95      1999996.35                
      5000009.95      1999996.25                
      5000009.95      1999996.15                
      5000009.95      1999996.05                
      5000009.95      1999995.95                
      5000009.95      1999995.85                
      5000009.95      1999995.75                
      5000009.95      1999995.65                
      5000009.95      1999995.55                
      5000009.95      1999995.45                
      5000009.95      1999995.35                
      5000009.95      1999995.25                
      5000009.95      1999995.15                
      5000009.95      1999995.05                
      5000009.95      1999994.95                
      5000009.95      1999994.85                
      5000009.95      1999994.75                
      5000009.95      1999994.65                
      5000009.95      1999994.55                
      5000009.95      1999994.45                
      5000009.95      1999994.35                
      5000009.95      1999994.25                
      5000009.95      1999994.15                
      5000009.95      1999994.05                
      5000009.95      1999993.95                
      5000009.95      1999993.85                
      5000009.95      1999993.75                
      5000009.95      1999993.65                
      5000009.95      1999993.55                
      5000009.95      1999993.45                
      5000009.95      1999993.35                
      5000009.95      1999993.25                
      5000009.95      1999993.15                
      5000009.95      1999993.05                
      5000009.95      1999992.95                
      5000009.95      1999992.85                
      5000009.95      1999992.75                
      5000009.95      1999992.65                
      5000009.95      1999992.55                
      5000009.95      1999992.45                
      5000009.95      1999992.35                
      5000009.95      1999992.25                
      5000009.95      1999992.15                
      5000009.95      1999992.05                
      5000009.95      1999991.95                
      5000009.95      1999991.85                
      5000009.95      1999991.75                
      5000009.95      1999991.65                
      5000009.95      1999991.55                
      5000009.95      1999991.45                
      5000009.95      1999991.35                
      5000009.95      1999991.25                
      5000009.95      1999991.15                
      5000009.95      1999991.05                
      5000009.95      1999990.95                
      5000009.95      1999990.85                
      5000009.95      1999990.75                
      5000009.95      1999990.65                
      5000009.95      1999990.55                
      5000009.95      1999990.45                
      5000009.95      1999990.35                
      5000009.95      1999990.25                
      5000009.95      1999990.15                
      5000009.95      1999990.05                
      5000009.95      1999989.95                
      5000009.95      1999989.85                
      5000009.95      1999989.75                
      5000009.95      1999989.65                
      5000009.95      1999989.55                
      5000009.95      1999989.45                
      5000009.95      1999989.35                
      5000009.95      1999989.25                
      5000009.95      1999989.15                
      5000009.95      1999989.05                
      5000009.95      1999988.95                
      5000009.95      1999988.85                
      5000009.95      1999988.75                
      5000009.95      1999988.65                
      5000009.95      1999988.55                
      5000009.95      1999988.45                
      5000009.95      1999988.35                
      5000009.95      1999988.25                
      5000009.95      1999988.15                
      5000009.95      1999988.05                
      5000009.95      1999987.95                
      5000009.95      1999987.85                
      5000009.95      1999987.75                
      5000009.95      1999987.65                
      5000009.95      1999987.55                
      5000009.95      1999987.45                
      5000009.95      1999987.35                
      5000009.95      1999987.25                
      5000009.95      1999987.15                
      5000009.95      1999987.05                
      5000009.95      1999986.95                
      5000009.95      1999986.85                
      5000009.95      1999986.75                
      5000009.95      1999986.65                
      5000009.95      1999986.55                
      5000009.95      1999986.45                
      5000009.95      1999986.35                
      5000009.95      1999986.25                
      5000009.95      1999986.15                
      5000009.95      1999986.05                
      5000009.95      1999985.95                
      5000009.95      1999985.85                
      5000009.95      1999985.75                
      5000009.95      1999985.65                
      5000009.95      1999985.55                
      5000009.95      1999985.45                
      5000009.95      1999985.35                
      5000009.95      1999985.25                
      5000009.95      1999985.15                
      5000009.95      1999985.05                
      5000009.95      1999984.95                
      5000009.95      1999984.85                
      5000009.95      1999984.75                
      5000009.95      1999984.65                
      5000009.95      1999984.55                
      5000009.95      1999984.45                
      5000009.95      1999984.35                
      5000009.95      1999984.25                
      5000009.95      1999984.15                
      5000009.95      1999984.05                
      5000009.95      1999983.95                
      5000009.95      1999983.85                
      5000009.95      1999983.75                
      5000009.95      1999983.65                
      5000009.95      1999983.55                
      5000009.95      1999983.45                
      5000009.95      1999983.35                
      5000009.95      1999983.25                
      5000009.95      1999983.15                
      5000009.95      1999983.05                
      5000009.95      1999982.95                
      5000009.95      1999982.85                
      5000009.95      1999982.75                
      5000009.95      1999982.65                
      5000009.95      1999982.55                
      5000009.95      1999982.45                
      5000009.95      1999982.35                
      5000009.95      1999982.25                
      5000009.95      1999982.15                
      5000009.95      1999982.05                
      5000009.95      1999981.95                
      5000009.95      1999981.85                
      5000009.95      1999981.75                
      5000009.95      1999981.65                
      5000009.95      1999981.55                
      5000009.95      1999981.45                
      5000009.95      1999981.35                
      5000009.95      1999981.25                
      5000009.95      1999981.15                
      5000009.95      1999981.05                
      5000009.95      1999980.95                
      5000009.95      1999980.85                
      5000009.95      1999980.75                
      5000009.95      1999980.65                
      5000009.95      1999980.55                
      5000009.95      1999980.45                
      5000009.95      1999980.35                
      5000009.95      1999980.25                
      5000009.95      1999980.15                
      5000009.95      1999980.05                
     5000009.851      1999980.05                
     5000009.752      1999980.05                
     5000009.653      1999980.05                
     5000009.554      1999980.05                
     5000009.455      1999980.05                
     5000009.356      1999980.05                
     5000009.257      1999980.05                
     5000009.158      1999980.05                
     5000009.059      1999980.05                
      5000008.96      1999980.05                
     5000008.861      1999980.05                
     5000008.762      1999980.05                
     5000008.663      1999980.05                
     5000008.564      1999980.05                
     5000008.465      1999980.05                
     5000008.366      1999980.05                
     5000008.267      1999980.05                
     5000008.168      1999980.05                
     5000008.069      1999980.05                
      5000007.97      1999980.05                
     5000007.871      1999980.05                
     5000007.772      1999980.05                
     5000007.673      1999980.05                
     5000007.574      1999980.05                
     5000007.475      1999980.05                
     5000007.376      1999980.05                
     5000007.277      1999980.05                
     5000007.178      1999980.05                
     5000007.079      1999980.05                
      5000006.98      1999980.05                
     5000006.881      1999980.05                
     5000006.782      1999980.05                
     5000006.683      1999980.05                
     5000006.584      1999980.05                
     5000006.485      1999980.05                
     5000006.386      1999980.05                
     5000006.287      1999980.05                
     5000006.188      1999980.05                
     5000006.089      1999980.05                
      5000005.99      1999980.05                
     5000005.891      1999980.05                
     5000005.792      1999980.05                
     5000005.693      1999980.05                
     5000005.594      1999980.05                
     5000005.495      1999980.05                
     5000005.396      1999980.05                
     5000005.297      1999980.05                
     5000005.198      1999980.05                
     5000005.099      1999980.05                
        5000005.      1999980.05                
     5000004.901      1999980.05                
     5000004.802      1999980.05                
     5000004.703      1999980.05                
     5000004.604      1999980.05                
     5000004.505      1999980.05                
     5000004.406      1999980.05                
     5000004.307      1999980.05                
     5000004.208      1999980.05                
     5000004.109      1999980.05                
      5000004.01      1999980.05                
     5000003.911      1999980.05                
     5000003.812      1999980.05                
     5000003.713      1999980.05                
     5000003.614      1999980.05                
     5000003.515      1999980.05                
     5000003.416      1999980.05                
     5000003.317      1999980.05                
     5000003.218      1999980.05                
     5000003.119      1999980.05                
      5000003.02      1999980.05                
     5000002.921      1999980.05                
     5000002.822      1999980.05                
     5000002.723      1999980.05                
     5000002.624      1999980.05                
     5000002.525      1999980.05                
     5000002.426      1999980.05                
     5000002.327      1999980.05                
     5000002.228      1999980.05                
     5000002.129      1999980.05                
      5000002.03      1999980.05                
     5000001.931      1999980.05                
     5000001.832      1999980.05                
     5000001.733      1999980.05                
     5000001.634      1999980.05                
     5000001.535      1999980.05                
     5000001.436      1999980.05                
     5000001.337      1999980.05                
     5000001.238      1999980.05                
     5000001.139      1999980.05                
      5000001.04      1999980.05                
     5000000.941      1999980.05                
     5000000.842      1999980.05                
     5000000.743      1999980.05                
     5000000.644      1999980.05                
     5000000.545      1999980.05                
     5000000.446      1999980.05                
     5000000.347      1999980.05                
     5000000.248      1999980.05                
     5000000.149      1999980.05                
      5000000.05      1999980.05                
      5000000.05      1999980.15                
      5000000.05      1999980.25                
      5000000.05      1999980.35                
      5000000.05      1999980.45                
      5000000.05      1999980.55                
      5000000.05      1999980.65                
      5000000.05      1999980.75                
      5000000.05      1999980.85                
      5000000.05      1999980.95                
      5000000.05      1999981.05                
      5000000.05      1999981.15                
      5000000.05      1999981.25                
      5000000.05      1999981.35                
      5000000.05      1999981.45                
      5000000.05      1999981.55                
      5000000.05      1999981.65                
      5000000.05      1999981.75                
      5000000.05      1999981.85                
      5000000.05      1999981.95                
      5000000.05      1999982.05                
      5000000.05      1999982.15                
      5000000.05      1999982.25                
      5000000.05      1999982.35                
      5000000.05      1999982.45                
      5000000.05      1999982.55                
      5000000.05      1999982.65                
      5000000.05      1999982.75                
      5000000.05      1999982.85                
      5000000.05      1999982.95                
      5000000.05      1999983.05                
      5000000.05      1999983.15                
      5000000.05      1999983.25                
      5000000.05      1999983.35                
      5000000.05      1999983.45                
      5000000.05      1999983.55                
      5000000.05      1999983.65                
      5000000.05      1999983.75                
      5000000.05      1999983.85                
      5000000.05      1999983.95                
      5000000.05      1999984.05                
      5000000.05      1999984.15                
      5000000.05      1999984.25                
      5000000.05      1999984.35                
      5000000.05      1999984.45                
      5000000.05      1999984.55                
      5000000.05      1999984.65                
      5000000.05      1999984.75                
      5000000.05      1999984.85                
      5000000.05      1999984.95                
      5000000.05      1999985.05                
      5000000.05      1999985.15                
      5000000.05      1999985.25                
      5000000.05      1999985.35                
      5000000.05      1999985.45                
      5000000.05      1999985.55                
      5000000.05      1999985.65                
      5000000.05      1999985.75                
      5000000.05      1999985.85                
      5000000.05      1999985.95                
      5000000.05      1999986.05                
      5000000.05      1999986.15                
      5000000.05      1999986.25                
      5000000.05      1999986.35                
      5000000.05      1999986.45                
      5000000.05      1999986.55                
      5000000.05      1999986.65                
      5000000.05      1999986.75                
      5000000.05      1999986.85                
      5000000.05      1999986.95                
      5000000.05      1999987.05                
      5000000.05      1999987.15                
      5000000.05      1999987.25                
      5000000.05      1999987.35                
      5000000.05      1999987.45                
      5000000.05      1999987.55                
      5000000.05      1999987.65                
      5000000.05      1999987.75                
      5000000.05      1999987.85                
      5000000.05      1999987.95                
      5000000.05      1999988.05                
      5000000.05      1999988.15                
      5000000.05      1999988.25                
      5000000.05      1999988.35                
      5000000.05      1999988.45                
      5000000.05      1999988.55                
      5000000.05      1999988.65                
      5000000.05      1999988.75                
      5000000.05      1999988.85                
      5000000.05      1999988.95                
      5000000.05      1999989.05                
      5000000.05      1999989.15                
      5000000.05      1999989.25                
      5000000.05      1999989.35                
      5000000.05      1999989.45                
      5000000.05      1999989.55                
      5000000.05      1999989.65                
      5000000.05      1999989.75                
      5000000.05      1999989.85                
      5000000.05      1999989.95                
      5000000.05      1999990.05                
      5000000.05      1999990.15                
      5000000.05      1999990.25                
      5000000.05      1999990.35                
      5000000.05      1999990.45                
      5000000.05      1999990.55                
      5000000.05      1999990.65                
      5000000.05      1999990.75                
      5000000.05      1999990.85                
      5000000.05      1999990.95                
      5000000.05      1999991.05                
      5000000.05      1999991.15                
      5000000.05      1999991.25                
      5000000.05      1999991.35                
      5000000.05      1999991.45                
      5000000.05      1999991.55                
      5000000.05      1999991.65                
      5000000.05      1999991.75                
      5000000.05      1999991.85                
      5000000.05      1999991.95                
      5000000.05      1999992.05                
      5000000.05      1999992.15                
      5000000.05      1999992.25                
      5000000.05      1999992.35                
      5000000.05      1999992.45                
      5000000.05      1999992.55                
      5000000.05      1999992.65                
      5000000.05      1999992.75                
      5000000.05      1999992.85                
      5000000.05      1999992.95                
      5000000.05      1999993.05                
      5000000.05      1999993.15                
      5000000.05      1999993.25                
      5000000.05      1999993.35                
      5000000.05      1999993.45                
      5000000.05      1999993.55                
      5000000.05      1999993.65                
      5000000.05      1999993.75                
      5000000.05      1999993.85                
      5000000.05      1999993.95                
      5000000.05      1999994.05                
      5000000.05      1999994.15                
      5000000.05      1999994.25                
      5000000.05      1999994.35                
      5000000.05      1999994.45                
      5000000.05      1999994.55                
      5000000.05      1999994.65                
      5000000.05      1999994.75                
      5000000.05      1999994.85                
      5000000.05      1999994.95                
      5000000.05      1999995.05                
      5000000.05      1999995.15                
      5000000.05      1999995.25                
      5000000.05      1999995.35                
      5000000.05      1999995.45                
      5000000.05      1999995.55                
      5000000.05      1999995.65                
      5000000.05      1999995.75                
      5000000.05      1999995.85                
      5000000.05      1999995.95                
      5000000.05      1999996.05                
      5000000.05      1999996.15                
      5000000.05      1999996.25                
      5000000.05      1999996.35                
      5000000.05      1999996.45                
      5000000.05      1999996.55                
      5000000.05      1999996.65                
      5000000.05      1999996.75                
      5000000.05      1999996.85                
      5000000.05      1999996.95                
      5000000.05      1999997.05                
      5000000.05      1999997.15                
      5000000.05      1999997.25                
      5000000.05      1999997.35                
      5000000.05      1999997.45                
      5000000.05      1999997.55                
      5000000.05      1999997.65                
      5000000.05      1999997.75                
      5000000.05      1999997.85                
      5000000.05      1999997.95                
      5000000.05      1999998.05                
      5000000.05      1999998.15                
      5000000.05      1999998.25                
      5000000.05      1999998.35                
      5000000.05      1999998.45                
      5000000.05      1999998.55                
      5000000.05      1999998.65                
      5000000.05      1999998.75                
      5000000.05      1999998.85                
      5000000.05      1999998.95                
      5000000.05      1999999.05                
      5000000.05      1999999.15                
      5000000.05      1999999.25                
      5000000.05      1999999.35                
      5000000.05      1999999.45                
      5000000.05      1999999.55                
      5000000.05      1999999.65                
      5000000.05      1999999.75                
      5000000.05      1999999.85                
      5000000.05      1999999.95                
Storage Area Type= 1 
Storage Area Area=
Storage Area Min Elev=
Storage Area Is2D=-1
Storage Area Point Generation Data=,,0.2,0.2
Storage Area 2D Points= 4851 
      5000000.15      1999999.85      5000000.35      1999999.85
5000000.55000001      1999999.855000000.75000001      1999999.85
5000000.95000001      1999999.855000001.15000002      1999999.85
5000001.35000002      1999999.855000001.55000002      1999999.85